/*--------------------------------*- C++ -*----------------------------------*\
| =========                 |                                                 |
| \\      /  F ield         | OpenFOAM: The Open Source CFD Toolbox           |
|  \\    /   O peration     | Version:  1.0                                   |
|   \\  /    A nd           | Web:      http://www.openfoam.org               |
|    \\/     M anipulation  |                                                 |
\*---------------------------------------------------------------------------*/

FoamFile
{
    version         2.0;
    format          ascii;

    root            "";
    case            "";
    instance        "";
    local           "";

    class           dictionary;
    object          ThermoPopeCloud;
}

// * * * * * * * * * * * * * * * * * * * * * * * * * * * * * * * * * * * * * //
fileName   "H2O";
fields 
(
    {
        N 20;	
	    max 1;
	    min 0;
	    name f;
	}
);

output
( 
    {
        name f;
    }
    {
        name H2O0;
	}
    {
        name H2O1;
    }
    {
        name H2O2;
    }
    {
        name H2O3;
    }
    {
        name H2O4;
    }
    {
        name H2O5;
    }
);

values
(
21
(
0
0.05
0.1
0.15
0.2
0.25
0.3
0.35
0.4
0.45
0.5
0.55
0.6
0.65
0.7
0.75
0.8
0.85
0.9
0.95
1
)

21
(
0
0.0174571429
0.0349142857
0.0523714286
0.0698285714
0.0872857143
0.1047428571
0.1222
0.1128
0.1034
0.094
0.0846
0.0752
0.0658
0.0564
0.047
0.0376
0.0282
0.0188
0.0094
0
)

21
(
0
0.0139657143
0.0279314286
0.0418971429
0.0558628571
0.0698285714
0.0837942857
0.09776
0.09024
0.08272
0.0752
0.06768
0.06016
0.05264
0.04512
0.0376
0.03008
0.02256
0.01504
0.00752
0
)

21
(
0
0.0104742857
0.0209485714
0.0314228571
0.0418971429
0.0523714286
0.0628457143
0.07332
0.06768
0.06204
0.0564
0.05076
0.04512
0.03948
0.03384
0.0282
0.02256
0.01692
0.01128
0.00564
0
)

21
(
0
0.0069828571
0.0139657143
0.0209485714
0.0279314286
0.0349142857
0.0418971429
0.04888
0.04512
0.04136
0.0376
0.03384
0.03008
0.02632
0.02256
0.0188
0.01504
0.01128
0.00752
0.00376
0
)

21
(
0
0.0034914286
0.0069828571
0.0104742857
0.0139657143
0.0174571429
0.0209485714
0.02444
0.02256
0.02068
0.0188
0.01692
0.01504
0.01316
0.01128
0.0094
0.00752
0.00564
0.00376
0.00188
0
)

21
(
0
0
0
0
0
0
0
0
0
0
0
0
0
0
0
0
0
0
0
0
0
)

);
// ************************************************************************* //
