/*--------------------------------*- C++ -*----------------------------------*\
| =========                 |                                                 |
| \\      /  F ield         | OpenFOAM: The Open Source CFD Toolbox           |
|  \\    /   O peration     | Version:  1.0                                   |
|   \\  /    A nd           | Web:      http://www.openfoam.org               |
|    \\/     M anipulation  |                                                 |
\*---------------------------------------------------------------------------*/

FoamFile
{
    version         2.0;
    format          ascii;

    root            "";
    case            "";
    instance        "";
    local           "";

    class           dictionary;
    object          ThermoPopeCloud;
}

// * * * * * * * * * * * * * * * * * * * * * * * * * * * * * * * * * * * * * //
fileName   "h";
fields 
(
    {
        N 79;	
	    max 1;
	    min 0;
	    name f;
	}
);

output
( 
    {
        name f;
    }
    {
        name h0;
	}
    {
        name h1;
    }
    {
        name h2;
    }
    {
        name h3;
    }
    {
        name h4;
    }
    {
        name h5;
    }
    {
        name h6;
    }
);

values
(
80
(
0
0.01266
0.02532
0.03797
0.05063
0.06329
0.07595
0.08861
0.10127
0.11392
0.12658
0.13924
0.1519
0.16456
0.17722
0.18987
0.20253
0.21519
0.22785
0.24051
0.25316
0.26582
0.27848
0.29114
0.3038
0.31646
0.32911
0.34177
0.35443
0.36709
0.37975
0.39241
0.40506
0.41772
0.43038
0.44304
0.4557
0.46835
0.48101
0.49367
0.50633
0.51899
0.53165
0.5443
0.55696
0.56962
0.58228
0.59494
0.60759
0.62025
0.63291
0.64557
0.65823
0.67089
0.68354
0.6962
0.70886
0.72152
0.73418
0.74684
0.75949
0.77215
0.78481
0.79747
0.81013
0.82278
0.83544
0.8481
0.86076
0.87342
0.88608
0.89873
0.91139
0.92405
0.93671
0.94937
0.96203
0.97468
0.98734
1
)

80
(
2.980E+02
8.780E+02
1.376E+03
1.793E+03
2.088E+03
2.160E+03
2.088E+03
2.018E+03
1.952E+03
1.892E+03
1.835E+03
1.782E+03
1.732E+03
1.685E+03
1.640E+03
1.598E+03
1.557E+03
1.518E+03
1.481E+03
1.445E+03
1.411E+03
1.378E+03
1.346E+03
1.316E+03
1.286E+03
1.257E+03
1.229E+03
1.202E+03
1.176E+03
1.150E+03
1.125E+03
1.101E+03
1.077E+03
1.054E+03
1.031E+03
1.009E+03
9.880E+02
9.670E+02
9.460E+02
9.260E+02
9.060E+02
8.860E+02
8.670E+02
8.480E+02
8.290E+02
8.110E+02
7.930E+02
7.760E+02
7.580E+02
7.410E+02
7.240E+02
7.070E+02
6.910E+02
6.750E+02
6.590E+02
6.430E+02
6.270E+02
6.110E+02
5.960E+02
5.810E+02
5.660E+02
5.510E+02
5.360E+02
5.210E+02
5.070E+02
4.920E+02
4.780E+02
4.640E+02
4.500E+02
4.350E+02
4.210E+02
4.080E+02
3.940E+02
3.800E+02
3.660E+02
3.530E+02
3.390E+02
3.250E+02
3.120E+02
2.980E+02
)

80
(
2.980E+02
8.680E+02
1.352E+03
1.736E+03
1.989E+03
2.114E+03
2.063E+03
1.998E+03
1.936E+03
1.877E+03
1.822E+03
1.770E+03
1.721E+03
1.674E+03
1.630E+03
1.587E+03
1.547E+03
1.509E+03
1.472E+03
1.436E+03
1.402E+03
1.370E+03
1.338E+03
1.308E+03
1.278E+03
1.249E+03
1.222E+03
1.195E+03
1.169E+03
1.143E+03
1.119E+03
1.094E+03
1.071E+03
1.048E+03
1.026E+03
1.004E+03
9.820E+02
9.610E+02
9.410E+02
9.210E+02
9.010E+02
8.810E+02
8.620E+02
8.440E+02
8.250E+02
8.070E+02
7.890E+02
7.720E+02
7.540E+02
7.370E+02
7.210E+02
7.040E+02
6.880E+02
6.720E+02
6.560E+02
6.400E+02
6.240E+02
6.090E+02
5.940E+02
5.780E+02
5.630E+02
5.490E+02
5.340E+02
5.190E+02
5.050E+02
4.910E+02
4.760E+02
4.620E+02
4.480E+02
4.340E+02
4.200E+02
4.070E+02
3.930E+02
3.790E+02
3.660E+02
3.520E+02
3.390E+02
3.250E+02
3.120E+02
2.980E+02
)

80
(
2.980E+02
8.220E+02
1.257E+03
1.590E+03
1.830E+03
1.991E+03
1.984E+03
1.932E+03
1.878E+03
1.824E+03
1.773E+03
1.725E+03
1.678E+03
1.634E+03
1.591E+03
1.551E+03
1.512E+03
1.475E+03
1.440E+03
1.405E+03
1.373E+03
1.341E+03
1.310E+03
1.281E+03
1.252E+03
1.224E+03
1.197E+03
1.171E+03
1.146E+03
1.121E+03
1.097E+03
1.073E+03
1.051E+03
1.028E+03
1.006E+03
9.850E+02
9.640E+02
9.440E+02
9.240E+02
9.040E+02
8.850E+02
8.660E+02
8.470E+02
8.290E+02
8.110E+02
7.940E+02
7.760E+02
7.590E+02
7.420E+02
7.260E+02
7.090E+02
6.930E+02
6.770E+02
6.610E+02
6.460E+02
6.310E+02
6.150E+02
6.000E+02
5.850E+02
5.710E+02
5.560E+02
5.420E+02
5.270E+02
5.130E+02
4.990E+02
4.850E+02
4.710E+02
4.580E+02
4.440E+02
4.300E+02
4.170E+02
4.040E+02
3.900E+02
3.770E+02
3.640E+02
3.500E+02
3.370E+02
3.240E+02
3.110E+02
2.980E+02
)

80
(
2.980E+02
7.730E+02
1.165E+03
1.473E+03
1.709E+03
1.869E+03
1.888E+03
1.851E+03
1.806E+03
1.759E+03
1.714E+03
1.670E+03
1.627E+03
1.586E+03
1.547E+03
1.509E+03
1.473E+03
1.437E+03
1.404E+03
1.371E+03
1.340E+03
1.309E+03
1.280E+03
1.251E+03
1.224E+03
1.197E+03
1.171E+03
1.146E+03
1.121E+03
1.097E+03
1.074E+03
1.051E+03
1.029E+03
1.007E+03
9.860E+02
9.650E+02
9.450E+02
9.250E+02
9.060E+02
8.870E+02
8.680E+02
8.500E+02
8.320E+02
8.140E+02
7.960E+02
7.790E+02
7.620E+02
7.460E+02
7.290E+02
7.130E+02
6.970E+02
6.820E+02
6.660E+02
6.510E+02
6.360E+02
6.210E+02
6.060E+02
5.910E+02
5.770E+02
5.630E+02
5.480E+02
5.340E+02
5.210E+02
5.070E+02
4.930E+02
4.800E+02
4.660E+02
4.530E+02
4.400E+02
4.260E+02
4.130E+02
4.000E+02
3.870E+02
3.740E+02
3.620E+02
3.490E+02
3.360E+02
3.230E+02
3.110E+02
2.980E+02
)

80
(
2.980E+02
7.530E+02
1.131E+03
1.431E+03
1.664E+03
1.817E+03
1.839E+03
1.809E+03
1.768E+03
1.726E+03
1.683E+03
1.642E+03
1.601E+03
1.562E+03
1.524E+03
1.488E+03
1.452E+03
1.418E+03
1.386E+03
1.354E+03
1.323E+03
1.294E+03
1.265E+03
1.237E+03
1.210E+03
1.184E+03
1.158E+03
1.133E+03
1.109E+03
1.086E+03
1.063E+03
1.040E+03
1.018E+03
9.970E+02
9.760E+02
9.560E+02
9.360E+02
9.160E+02
8.970E+02
8.780E+02
8.600E+02
8.420E+02
8.240E+02
8.060E+02
7.890E+02
7.720E+02
7.560E+02
7.390E+02
7.230E+02
7.070E+02
6.910E+02
6.760E+02
6.610E+02
6.460E+02
6.310E+02
6.160E+02
6.010E+02
5.870E+02
5.730E+02
5.590E+02
5.450E+02
5.310E+02
5.170E+02
5.040E+02
4.900E+02
4.770E+02
4.640E+02
4.500E+02
4.370E+02
4.240E+02
4.110E+02
3.990E+02
3.860E+02
3.730E+02
3.610E+02
3.480E+02
3.350E+02
3.230E+02
3.110E+02
2.980E+02
)

80
(
2.980E+02
7.260E+02
1.086E+03
1.377E+03
1.602E+03
1.737E+03
1.760E+03
1.738E+03
1.705E+03
1.669E+03
1.632E+03
1.595E+03
1.558E+03
1.522E+03
1.487E+03
1.453E+03
1.420E+03
1.388E+03
1.356E+03
1.326E+03
1.297E+03
1.268E+03
1.241E+03
1.214E+03
1.188E+03
1.162E+03
1.137E+03
1.113E+03
1.090E+03
1.067E+03
1.045E+03
1.023E+03
1.002E+03
9.810E+02
9.600E+02
9.410E+02
9.210E+02
9.020E+02
8.830E+02
8.650E+02
8.470E+02
8.290E+02
8.120E+02
7.940E+02
7.780E+02
7.610E+02
7.450E+02
7.290E+02
7.130E+02
6.970E+02
6.820E+02
6.670E+02
6.520E+02
6.370E+02
6.230E+02
6.080E+02
5.940E+02
5.800E+02
5.660E+02
5.520E+02
5.390E+02
5.250E+02
5.120E+02
4.980E+02
4.850E+02
4.720E+02
4.590E+02
4.470E+02
4.340E+02
4.210E+02
4.090E+02
3.960E+02
3.840E+02
3.710E+02
3.590E+02
3.470E+02
3.340E+02
3.220E+02
3.100E+02
2.980E+02
)

80
(
2.980E+02
2.980E+02
2.980E+02
2.980E+02
2.980E+02
2.980E+02
2.980E+02
2.980E+02
2.980E+02
2.980E+02
2.980E+02
2.980E+02
2.980E+02
2.980E+02
2.980E+02
2.980E+02
2.980E+02
2.980E+02
2.980E+02
2.980E+02
2.980E+02
2.980E+02
2.980E+02
2.980E+02
2.980E+02
2.980E+02
2.980E+02
2.980E+02
2.980E+02
2.980E+02
2.980E+02
2.980E+02
2.980E+02
2.980E+02
2.980E+02
2.980E+02
2.980E+02
2.980E+02
2.980E+02
2.980E+02
2.980E+02
2.980E+02
2.980E+02
2.980E+02
2.980E+02
2.980E+02
2.980E+02
2.980E+02
2.980E+02
2.980E+02
2.980E+02
2.980E+02
2.980E+02
2.980E+02
2.980E+02
2.980E+02
2.980E+02
2.980E+02
2.980E+02
2.980E+02
2.980E+02
2.980E+02
2.980E+02
2.980E+02
2.980E+02
2.980E+02
2.980E+02
2.980E+02
2.980E+02
2.980E+02
2.980E+02
2.980E+02
2.980E+02
2.980E+02
2.980E+02
2.980E+02
2.980E+02
2.980E+02
2.980E+02
2.980E+02
)
);
// ************************************************************************* //
