/*--------------------------------*- C++ -*----------------------------------*\
| =========                 |                                                 |
| \\      /  F ield         | OpenFOAM: The Open Source CFD Toolbox           |
|  \\    /   O peration     | Version:  1.0                                   |
|   \\  /    A nd           | Web:      http://www.openfoam.org               |
|    \\/     M anipulation  |                                                 |
\*---------------------------------------------------------------------------*/

FoamFile
{
    version         2.0;
    format          ascii;

    root            "";
    case            "";
    instance        "";
    local           "";

    class           dictionary;
    object          ThermoPopeCloud;
}

// * * * * * * * * * * * * * * * * * * * * * * * * * * * * * * * * * * * * * //
fileName   "H2";
fields 
(
    {
        N 79;	
	    max 1;
	    min 0;
	    name f;
	}
);

output
( 
    {
        name f;
    }
    {
        name H20;
	}
    {
        name H21;
    }
    {
        name H22;
    }
    {
        name H23;
    }
    {
        name H24;
    }
    {
        name H25;
    }
    {
        name H26;
    }
);

values
(
80
(
0
0.01266
0.02532
0.03797
0.05063
0.06329
0.07595
0.08861
0.10127
0.11392
0.12658
0.13924
0.1519
0.16456
0.17722
0.18987
0.20253
0.21519
0.22785
0.24051
0.25316
0.26582
0.27848
0.29114
0.3038
0.31646
0.32911
0.34177
0.35443
0.36709
0.37975
0.39241
0.40506
0.41772
0.43038
0.44304
0.4557
0.46835
0.48101
0.49367
0.50633
0.51899
0.53165
0.5443
0.55696
0.56962
0.58228
0.59494
0.60759
0.62025
0.63291
0.64557
0.65823
0.67089
0.68354
0.6962
0.70886
0.72152
0.73418
0.74684
0.75949
0.77215
0.78481
0.79747
0.81013
0.82278
0.83544
0.8481
0.86076
0.87342
0.88608
0.89873
0.91139
0.92405
0.93671
0.94937
0.96203
0.97468
0.98734
1
)

80
(
0
7.94E-07
2.40E-06
2.60E-05
2.44E-04
1.52E-03
1.77E-03
1.87E-03
1.94E-03
2.00E-03
2.03E-03
2.06E-03
2.07E-03
2.07E-03
2.07E-03
2.06E-03
2.04E-03
2.02E-03
2.00E-03
1.98E-03
1.95E-03
1.93E-03
1.90E-03
1.87E-03
1.84E-03
1.81E-03
1.77E-03
1.74E-03
1.71E-03
1.68E-03
1.64E-03
1.61E-03
1.58E-03
1.54E-03
1.51E-03
1.47E-03
1.44E-03
1.41E-03
1.37E-03
1.34E-03
1.31E-03
1.27E-03
1.24E-03
1.20E-03
1.17E-03
1.14E-03
1.10E-03
1.07E-03
1.04E-03
1.00E-03
9.69E-04
9.36E-04
9.02E-04
8.69E-04
8.35E-04
8.02E-04
7.68E-04
7.35E-04
7.02E-04
6.68E-04
6.35E-04
6.01E-04
5.68E-04
5.35E-04
5.01E-04
4.68E-04
4.34E-04
4.01E-04
3.67E-04
3.34E-04
3.01E-04
2.67E-04
2.34E-04
2.00E-04
1.67E-04
1.34E-04
1.00E-04
6.68E-05
3.34E-05
0
)

80
(
0
1.03E-05
2.36E-05
1.15E-04
4.83E-04
1.66E-03
2.13E-03
2.23E-03
2.28E-03
2.31E-03
2.33E-03
2.34E-03
2.34E-03
2.34E-03
2.32E-03
2.31E-03
2.29E-03
2.27E-03
2.24E-03
2.21E-03
2.18E-03
2.15E-03
2.12E-03
2.09E-03
2.05E-03
2.02E-03
1.98E-03
1.95E-03
1.91E-03
1.87E-03
1.84E-03
1.80E-03
1.76E-03
1.72E-03
1.69E-03
1.65E-03
1.61E-03
1.57E-03
1.53E-03
1.50E-03
1.46E-03
1.42E-03
1.38E-03
1.35E-03
1.31E-03
1.27E-03
1.23E-03
1.20E-03
1.16E-03
1.12E-03
1.08E-03
1.05E-03
1.01E-03
9.71E-04
9.33E-04
8.96E-04
8.58E-04
8.21E-04
7.84E-04
7.46E-04
7.09E-04
6.72E-04
6.34E-04
5.97E-04
5.60E-04
5.22E-04
4.85E-04
4.48E-04
4.11E-04
3.73E-04
3.36E-04
2.99E-04
2.61E-04
2.24E-04
1.87E-04
1.49E-04
1.12E-04
7.46E-05
3.73E-05
0
)

80
(
0
6.98E-05
1.38E-04
3.08E-04
7.94E-04
1.98E-03
2.94E-03
3.13E-03
3.21E-03
3.25E-03
3.27E-03
3.27E-03
3.27E-03
3.25E-03
3.23E-03
3.20E-03
3.17E-03
3.14E-03
3.10E-03
3.06E-03
3.02E-03
2.97E-03
2.93E-03
2.88E-03
2.83E-03
2.78E-03
2.73E-03
2.68E-03
2.63E-03
2.58E-03
2.53E-03
2.48E-03
2.42E-03
2.37E-03
2.32E-03
2.27E-03
2.22E-03
2.16E-03
2.11E-03
2.06E-03
2.01E-03
1.96E-03
1.91E-03
1.85E-03
1.80E-03
1.75E-03
1.70E-03
1.65E-03
1.60E-03
1.54E-03
1.49E-03
1.44E-03
1.39E-03
1.34E-03
1.29E-03
1.23E-03
1.18E-03
1.13E-03
1.08E-03
1.03E-03
9.77E-04
9.25E-04
8.74E-04
8.23E-04
7.71E-04
7.20E-04
6.68E-04
6.17E-04
5.66E-04
5.14E-04
4.63E-04
4.11E-04
3.60E-04
3.09E-04
2.57E-04
2.06E-04
1.54E-04
1.03E-04
5.14E-05
0
)

80
(
0
1.43E-04
2.78E-04
4.84E-04
1.02E-03
2.23E-03
3.29E-03
3.61E-03
3.73E-03
3.79E-03
3.83E-03
3.84E-03
3.84E-03
3.82E-03
3.80E-03
3.77E-03
3.74E-03
3.70E-03
3.65E-03
3.61E-03
3.56E-03
3.51E-03
3.45E-03
3.40E-03
3.34E-03
3.28E-03
3.23E-03
3.17E-03
3.11E-03
3.05E-03
2.99E-03
2.93E-03
2.87E-03
2.81E-03
2.75E-03
2.68E-03
2.62E-03
2.56E-03
2.50E-03
2.44E-03
2.38E-03
2.32E-03
2.26E-03
2.20E-03
2.13E-03
2.07E-03
2.01E-03
1.95E-03
1.89E-03
1.83E-03
1.77E-03
1.71E-03
1.65E-03
1.58E-03
1.52E-03
1.46E-03
1.40E-03
1.34E-03
1.28E-03
1.22E-03
1.16E-03
1.10E-03
1.04E-03
9.75E-04
9.14E-04
8.53E-04
7.92E-04
7.31E-04
6.70E-04
6.09E-04
5.48E-04
4.87E-04
4.27E-04
3.66E-04
3.05E-04
2.44E-04
1.83E-04
1.22E-04
6.09E-05
0
)

80
(
0
1.79E-04
3.51E-04
5.85E-04
1.14E-03
2.33E-03
3.31E-03
3.66E-03
3.80E-03
3.88E-03
3.92E-03
3.94E-03
3.94E-03
3.93E-03
3.91E-03
3.88E-03
3.85E-03
3.81E-03
3.77E-03
3.72E-03
3.67E-03
3.62E-03
3.57E-03
3.51E-03
3.45E-03
3.39E-03
3.33E-03
3.27E-03
3.21E-03
3.15E-03
3.09E-03
3.03E-03
2.97E-03
2.90E-03
2.84E-03
2.78E-03
2.71E-03
2.65E-03
2.59E-03
2.52E-03
2.46E-03
2.40E-03
2.33E-03
2.27E-03
2.21E-03
2.14E-03
2.08E-03
2.02E-03
1.96E-03
1.89E-03
1.83E-03
1.77E-03
1.70E-03
1.64E-03
1.58E-03
1.51E-03
1.45E-03
1.39E-03
1.32E-03
1.26E-03
1.20E-03
1.13E-03
1.07E-03
1.01E-03
9.45E-04
8.82E-04
8.19E-04
7.56E-04
6.93E-04
6.30E-04
5.67E-04
5.04E-04
4.41E-04
3.78E-04
3.15E-04
2.52E-04
1.89E-04
1.26E-04
6.30E-05
0
)

80
(
0
2.44E-04
4.83E-04
7.80E-04
1.38E-03
2.45E-03
3.24E-03
3.58E-03
3.73E-03
3.83E-03
3.88E-03
3.91E-03
3.93E-03
3.93E-03
3.91E-03
3.89E-03
3.86E-03
3.83E-03
3.79E-03
3.74E-03
3.69E-03
3.64E-03
3.59E-03
3.54E-03
3.48E-03
3.42E-03
3.36E-03
3.30E-03
3.24E-03
3.18E-03
3.12E-03
3.06E-03
2.99E-03
2.93E-03
2.87E-03
2.80E-03
2.74E-03
2.68E-03
2.61E-03
2.55E-03
2.48E-03
2.42E-03
2.36E-03
2.29E-03
2.23E-03
2.17E-03
2.10E-03
2.04E-03
1.97E-03
1.91E-03
1.85E-03
1.78E-03
1.72E-03
1.66E-03
1.59E-03
1.53E-03
1.46E-03
1.40E-03
1.34E-03
1.27E-03
1.21E-03
1.15E-03
1.08E-03
1.02E-03
9.55E-04
8.91E-04
8.28E-04
7.64E-04
7.00E-04
6.37E-04
5.73E-04
5.09E-04
4.46E-04
3.82E-04
3.18E-04
2.55E-04
1.91E-04
1.27E-04
6.37E-05
0
)

80
(
0
0
0
0
0
0
0
0
0
0
0
0
0
0
0
0
0
0
0
0
0
0
0
0
0
0
0
0
0
0
0
0
0
0
0
0
0
0
0
0
0
0
0
0
0
0
0
0
0
0
0
0
0
0
0
0
0
0
0
0
0
0
0
0
0
0
0
0
0
0
0
0
0
0
0
0
0
0
0
0
)
);
// ************************************************************************* //
