/*--------------------------------*- C++ -*----------------------------------*\
| =========                 |                                                 |
| \\      /  F ield         | OpenFOAM: The Open Source CFD Toolbox           |
|  \\    /   O peration     | Version:  1.0                                   |
|   \\  /    A nd           | Web:      http://www.openfoam.org               |
|    \\/     M anipulation  |                                                 |
\*---------------------------------------------------------------------------*/

FoamFile
{
    version         2.0;
    format          ascii;

    root            "";
    case            "";
    instance        "";
    local           "";

    class           dictionary;
    object          ThermoPopeCloud;
}

// * * * * * * * * * * * * * * * * * * * * * * * * * * * * * * * * * * * * * //
fileName   "O2";
fields 
(
    {
        N 79;	
	    max 1;
	    min 0;
	    name f;
	}
);

output
( 
    {
        name f;
    }
    {
        name O20;
	}
    {
        name O21;
    }
    {
        name O22;
    }
    {
        name O23;
    }
    {
        name O24;
    }
    {
        name O25;
    }
    {
        name O26;
    }
);

values
(
80
(
0
0.01266
0.02532
0.03797
0.05063
0.06329
0.07595
0.08861
0.10127
0.11392
0.12658
0.13924
0.1519
0.16456
0.17722
0.18987
0.20253
0.21519
0.22785
0.24051
0.25316
0.26582
0.27848
0.29114
0.3038
0.31646
0.32911
0.34177
0.35443
0.36709
0.37975
0.39241
0.40506
0.41772
0.43038
0.44304
0.4557
0.46835
0.48101
0.49367
0.50633
0.51899
0.53165
0.5443
0.55696
0.56962
0.58228
0.59494
0.60759
0.62025
0.63291
0.64557
0.65823
0.67089
0.68354
0.6962
0.70886
0.72152
0.73418
0.74684
0.75949
0.77215
0.78481
0.79747
0.81013
0.82278
0.83544
0.8481
0.86076
0.87342
0.88608
0.89873
0.91139
0.92405
0.93671
0.94937
0.96203
0.97468
0.98734
1
)

80
(
0.233
0.179
0.126
7.23E-02
2.36E-02
7.65E-04
1.85E-04
6.67E-05
2.83E-05
1.32E-05
6.65E-06
3.55E-06
1.99E-06
1.16E-06
7.00E-07
4.35E-07
2.78E-07
1.82E-07
1.21E-07
8.19E-08
5.64E-08
3.93E-08
2.78E-08
1.98E-08
1.43E-08
1.04E-08
7.65E-09
5.66E-09
4.21E-09
3.16E-09
2.38E-09
1.80E-09
1.37E-09
1.05E-09
8.01E-10
6.16E-10
4.75E-10
3.67E-10
2.84E-10
2.20E-10
1.71E-10
1.33E-10
1.04E-10
8.08E-11
6.30E-11
4.92E-11
3.85E-11
3.02E-11
2.37E-11
1.86E-11
1.47E-11
1.16E-11
9.25E-12
7.39E-12
5.94E-12
4.80E-12
3.91E-12
3.20E-12
2.65E-12
2.20E-12
1.84E-12
1.55E-12
1.32E-12
1.13E-12
9.67E-13
8.34E-13
7.23E-13
6.29E-13
5.48E-13
4.77E-13
4.14E-13
3.58E-13
3.06E-13
2.58E-13
2.13E-13
1.69E-13
1.26E-13
8.39E-14
4.19E-14
0
)

80
(
0.233
0.18
0.127
7.41E-02
2.90E-02
2.77E-03
9.87E-04
5.28E-04
3.27E-04
2.17E-04
1.51E-04
1.09E-04
7.98E-05
5.97E-05
4.53E-05
3.49E-05
2.71E-05
2.13E-05
1.69E-05
1.35E-05
1.08E-05
8.77E-06
7.15E-06
5.85E-06
4.82E-06
3.98E-06
3.31E-06
2.76E-06
2.31E-06
1.94E-06
1.63E-06
1.38E-06
1.16E-06
9.88E-07
8.40E-07
7.16E-07
6.12E-07
5.24E-07
4.50E-07
3.88E-07
3.35E-07
2.90E-07
2.52E-07
2.19E-07
1.92E-07
1.68E-07
1.48E-07
1.31E-07
1.16E-07
1.03E-07
9.25E-08
8.31E-08
7.48E-08
6.77E-08
6.14E-08
5.59E-08
5.10E-08
4.66E-08
4.27E-08
3.92E-08
3.60E-08
3.31E-08
3.04E-08
2.79E-08
2.56E-08
2.35E-08
2.15E-08
1.96E-08
1.77E-08
1.60E-08
1.43E-08
1.26E-08
1.10E-08
9.37E-09
7.79E-09
6.22E-09
4.66E-09
3.11E-09
1.55E-09
0
)

80
(
0.233
0.182
0.131
8.12E-02
3.84E-02
1.08E-02
5.35E-03
3.58E-03
2.61E-03
1.99E-03
1.55E-03
1.23E-03
9.88E-04
8.04E-04
6.60E-04
5.47E-04
4.56E-04
3.82E-04
3.23E-04
2.74E-04
2.34E-04
2.00E-04
1.73E-04
1.49E-04
1.30E-04
1.13E-04
9.94E-05
8.76E-05
7.75E-05
6.89E-05
6.15E-05
5.52E-05
4.97E-05
4.50E-05
4.10E-05
3.74E-05
3.44E-05
3.17E-05
2.94E-05
2.73E-05
2.55E-05
2.39E-05
2.25E-05
2.12E-05
2.01E-05
1.90E-05
1.81E-05
1.72E-05
1.64E-05
1.57E-05
1.50E-05
1.43E-05
1.37E-05
1.31E-05
1.25E-05
1.19E-05
1.14E-05
1.08E-05
1.03E-05
9.80E-06
9.28E-06
8.78E-06
8.28E-06
7.78E-06
7.29E-06
6.79E-06
6.30E-06
5.81E-06
5.33E-06
4.84E-06
4.36E-06
3.87E-06
3.39E-06
2.90E-06
2.42E-06
1.93E-06
1.45E-06
9.67E-07
4.84E-07
0
)

80
(
0.233
0.185
0.137
8.96E-02
4.85E-02
2.16E-02
1.31E-02
9.76E-03
7.78E-03
6.39E-03
5.34E-03
4.52E-03
3.87E-03
3.34E-03
2.91E-03
2.56E-03
2.26E-03
2.01E-03
1.80E-03
1.62E-03
1.46E-03
1.33E-03
1.22E-03
1.12E-03
1.04E-03
9.64E-04
8.99E-04
8.43E-04
7.93E-04
7.49E-04
7.10E-04
6.75E-04
6.44E-04
6.15E-04
5.90E-04
5.66E-04
5.45E-04
5.25E-04
5.06E-04
4.89E-04
4.72E-04
4.57E-04
4.42E-04
4.27E-04
4.13E-04
4.00E-04
3.87E-04
3.74E-04
3.61E-04
3.49E-04
3.37E-04
3.25E-04
3.13E-04
3.01E-04
2.89E-04
2.77E-04
2.66E-04
2.54E-04
2.42E-04
2.31E-04
2.19E-04
2.08E-04
1.96E-04
1.84E-04
1.73E-04
1.61E-04
1.50E-04
1.38E-04
1.27E-04
1.15E-04
1.04E-04
9.22E-05
8.07E-05
6.91E-05
5.76E-05
4.61E-05
3.46E-05
2.30E-05
1.15E-05
0
)

80
(
0.233
0.186
0.14
9.37E-02
5.36E-02
2.75E-02
1.80E-02
1.39E-02
1.14E-02
9.56E-03
8.16E-03
7.05E-03
6.15E-03
5.41E-03
4.80E-03
4.29E-03
3.86E-03
3.50E-03
3.19E-03
2.92E-03
2.69E-03
2.49E-03
2.32E-03
2.17E-03
2.04E-03
1.92E-03
1.82E-03
1.73E-03
1.64E-03
1.57E-03
1.50E-03
1.44E-03
1.39E-03
1.34E-03
1.29E-03
1.24E-03
1.20E-03
1.16E-03
1.13E-03
1.09E-03
1.06E-03
1.03E-03
9.93E-04
9.63E-04
9.33E-04
9.04E-04
8.75E-04
8.47E-04
8.19E-04
7.92E-04
7.64E-04
7.37E-04
7.10E-04
6.83E-04
6.57E-04
6.30E-04
6.04E-04
5.77E-04
5.51E-04
5.24E-04
4.98E-04
4.72E-04
4.46E-04
4.19E-04
3.93E-04
3.67E-04
3.41E-04
3.14E-04
2.88E-04
2.62E-04
2.36E-04
2.10E-04
1.83E-04
1.57E-04
1.31E-04
1.05E-04
7.86E-05
5.24E-05
2.62E-05
0
)

80
(
0.233
0.188
0.144
0.1
6.21E-02
3.79E-02
2.74E-02
2.22E-02
1.87E-02
1.61E-02
1.40E-02
1.23E-02
1.10E-02
9.85E-03
8.90E-03
8.10E-03
7.43E-03
6.85E-03
6.35E-03
5.91E-03
5.54E-03
5.21E-03
4.92E-03
4.66E-03
4.43E-03
4.23E-03
4.04E-03
3.88E-03
3.73E-03
3.59E-03
3.46E-03
3.34E-03
3.23E-03
3.13E-03
3.03E-03
2.94E-03
2.85E-03
2.77E-03
2.69E-03
2.61E-03
2.53E-03
2.46E-03
2.39E-03
2.32E-03
2.25E-03
2.18E-03
2.11E-03
2.05E-03
1.98E-03
1.91E-03
1.85E-03
1.78E-03
1.72E-03
1.65E-03
1.59E-03
1.53E-03
1.46E-03
1.40E-03
1.33E-03
1.27E-03
1.21E-03
1.14E-03
1.08E-03
1.02E-03
9.52E-04
8.88E-04
8.25E-04
7.61E-04
6.98E-04
6.34E-04
5.71E-04
5.07E-04
4.44E-04
3.81E-04
3.17E-04
2.54E-04
1.90E-04
1.27E-04
6.34E-05
0
)

80
(
0.233
0.23
0.227
0.224
0.221
0.218
0.215
0.212
0.209
0.206
0.204
0.201
0.198
0.195
0.192
0.189
0.186
0.183
0.18
0.177
0.174
0.171
0.168
0.165
0.162
0.159
0.156
0.153
0.15
0.147
0.145
0.142
0.139
0.136
0.133
0.13
0.127
0.124
0.121
0.118
0.115
0.112
0.109
0.106
0.103
0.1
9.73E-02
9.44E-02
9.14E-02
8.85E-02
8.55E-02
8.26E-02
7.96E-02
7.67E-02
7.37E-02
7.08E-02
6.78E-02
6.49E-02
6.19E-02
5.90E-02
5.60E-02
5.31E-02
5.01E-02
4.72E-02
4.42E-02
4.13E-02
3.83E-02
3.54E-02
3.24E-02
2.95E-02
2.65E-02
2.36E-02
2.07E-02
1.77E-02
1.48E-02
1.18E-02
8.85E-03
5.90E-03
2.95E-03
0
)
);
// ************************************************************************* //
