/*--------------------------------*- C++ -*----------------------------------*\
| =========                 |                                                 |
| \\      /  F ield         | OpenFOAM: The Open Source CFD Toolbox           |
|  \\    /   O peration     | Version:  1.0                                   |
|   \\  /    A nd           | Web:      http://www.openfoam.org               |
|    \\/     M anipulation  |                                                 |
\*---------------------------------------------------------------------------*/

FoamFile
{
    version         2.0;
    format          ascii;

    root            "";
    case            "";
    instance        "";
    local           "";

    class           dictionary;
    object          ThermoPopeCloud;
}

// * * * * * * * * * * * * * * * * * * * * * * * * * * * * * * * * * * * * * //
fileName   "h";
fields 
(
    {
        N 20;	
	    max 1;
	    min 0;
	    name f;
	}
);

output
( 
    {
        name f;
    }
    {
        name h0;
	}
    {
        name h1;
    }
    {
        name h2;
    }
    {
        name h3;
    }
    {
        name h4;
    }
    {
        name h5;
    }
);

values
(
21
(
0
0.05
0.1
0.15
0.2
0.25
0.3
0.35
0.4
0.45
0.5
0.55
0.6
0.65
0.7
0.75
0.8
0.85
0.9
0.95
1
)

21
(
298.00
2000.00
1910.16
1820.32
1730.47
1640.63
1550.79
1460.95
1371.11
1281.26
1191.42
1101.58
1011.74
921.89
832.05
742.21
652.37
562.53
472.68
382.84
298.00
)

21
(
298.00
1659.60
1587.73
1515.86
1443.98
1372.10
1300.23
1228.36
1156.49
1084.61
1012.74
940.86
868.99
797.11
725.24
653.37
581.50
509.62
437.74
365.87
298.00
)

21
(
298.00
1319.20
1265.30
1211.39
1157.48
1103.58
1049.67
995.77
941.87
887.96
834.05
780.15
726.24
672.33
618.43
564.53
510.62
456.72
402.81
348.90
298.00
)

21
(
298.00
978.80
942.86
906.93
870.99
835.05
799.12
763.18
727.24
691.30
655.37
619.43
583.50
547.56
511.62
475.68
439.75
403.81
367.87
331.94
298.00
)

21
(
298.00
638.40
620.43
602.46
584.49
566.53
548.56
530.59
512.62
494.65
476.68
458.72
440.75
422.78
404.81
386.84
368.87
350.91
332.94
314.97
298.00
)

21
(
298.00
298.00
298.00
298.00
298.00
298.00
298.00
298.00
298.00
298.00
298.00
298.00
298.00
298.00
298.00
298.00
298.00
298.00
298.00
298.00
298.00
)

);
// ************************************************************************* //
