/*--------------------------------*- C++ -*----------------------------------*\
| =========                 |                                                 |
| \\      /  F ield         | OpenFOAM: The Open Source CFD Toolbox           |
|  \\    /   O peration     | Version:  1.0                                   |
|   \\  /    A nd           | Web:      http://www.openfoam.org               |
|    \\/     M anipulation  |                                                 |
\*---------------------------------------------------------------------------*/

FoamFile
{
    version         2.0;
    format          ascii;

    root            "";
    case            "";
    instance        "";
    local           "";

    class           dictionary;
    object          ThermoPopeCloud;
}

// * * * * * * * * * * * * * * * * * * * * * * * * * * * * * * * * * * * * * //
fileName   "O2";
fields 
(
    {
        N 20;	
	    max 1;
	    min 0;
	    name f;
	}
);

output
( 
    {
        name f;
    }
    {
        name O20;
	}
    {
        name O21;
    }
    {
        name O22;
    }
    {
        name O23;
    }
    {
        name O24;
    }
    {
        name O25;
    }
);

values
(
21
(
0
0.05
0.1
0.15
0.2
0.25
0.3
0.35
0.4
0.45
0.5
0.55
0.6
0.65
0.7
0.75
0.8
0.85
0.9
0.95
1
)

21
(
0.233
0
0
0
0
0
0
0
0
0
0
0
0
0
0
0
0
0
0
0
0
)

21
(
0.233
0.04427
0.04194
0.03961
0.03728
0.03495
0.03262
0.03029
0.02796
0.02563
0.0233
0.02097
0.01864
0.01631
0.01398
0.01165
0.00932
0.00699
0.00466
0.00233
0
)

21
(
0.233
0.08854
0.08388
0.07922
0.07456
0.0699
0.06524
0.06058
0.05592
0.05126
0.0466
0.04194
0.03728
0.03262
0.02796
0.0233
0.01864
0.01398
0.00932
0.00466
0
)

21
(
0.233
0.13281
0.12582
0.11883
0.11184
0.10485
0.09786
0.09087
0.08388
0.07689
0.0699
0.06291
0.05592
0.04893
0.04194
0.03495
0.02796
0.02097
0.01398
0.00699
0
)

21
(
0.233
0.17708
0.16776
0.15844
0.14912
0.1398
0.13048
0.12116
0.11184
0.10252
0.0932
0.08388
0.07456
0.06524
0.05592
0.0466
0.03728
0.02796
0.01864
0.00932
0
)

21
(
0.233
0.22135
0.2097
0.19805
0.1864
0.17475
0.1631
0.15145
0.1398
0.12815
0.1165
0.10485
0.0932
0.08155
0.0699
0.05825
0.0466
0.03495
0.0233
0.01165
0
)


);
// ************************************************************************* //
