/*--------------------------------*- C++ -*----------------------------------*\
| =========                 |                                                 |
| \\      /  F ield         | OpenFOAM: The Open Source CFD Toolbox           |
|  \\    /   O peration     | Version:  1.0                                   |
|   \\  /    A nd           | Web:      http://www.openfoam.org               |
|    \\/     M anipulation  |                                                 |
\*---------------------------------------------------------------------------*/

FoamFile
{
    version         2.0;
    format          ascii;

    root            "";
    case            "";
    instance        "";
    local           "";

    class           dictionary;
    object          ThermoPopeCloud;
}

// * * * * * * * * * * * * * * * * * * * * * * * * * * * * * * * * * * * * * //
fileName   "CH4";
fields 
(
    {
        N 20;	
	    max 1;
	    min 0;
	    name f;
	}
);

output
( 
    {
        name f;
    }
    {
        name CH40;
	}
    {
        name CH41;
    }
    {
        name CH42;
    }
    {
        name CH43;
    }
    {
        name CH44;
    }
    {
        name CH45;
    }
);

values
(
21
(
0
0.05
0.1
0.15
0.2
0.25
0.3
0.35
0.4
0.45
0.5
0.55
0.6
0.65
0.7
0.75
0.8
0.85
0.9
0.95
1
)

21
(
0
0
0.052631579
0.105263158
0.157894737
0.210526316
0.263157895
0.315789474
0.368421053
0.421052632
0.473684211
0.526315789
0.578947368
0.631578947
0.684210526
0.736842105
0.789473684
0.842105263
0.894736842
0.947368421
1
)

21
(
0
0.01
0.062105263
0.114210526
0.166315789
0.218421053
0.270526316
0.322631579
0.374736842
0.426842105
0.478947368
0.531052632
0.583157895
0.635263158
0.687368421
0.739473684
0.791578947
0.843684211
0.895789474
0.947894737
1
)

21
(
0
0.02
0.071578947
0.123157895
0.174736842
0.226315789
0.277894737
0.329473684
0.381052632
0.432631579
0.484210526
0.535789474
0.587368421
0.638947368
0.690526316
0.742105263
0.793684211
0.845263158
0.896842105
0.948421053
1
)

21
(
0
0.03
0.081052632
0.132105263
0.183157895
0.234210526
0.285263158
0.336315789
0.387368421
0.438421053
0.489473684
0.540526316
0.591578947
0.642631579
0.693684211
0.744736842
0.795789474
0.846842105
0.897894737
0.948947368
1
)

21
(
0
0.04
0.090526316
0.141052632
0.191578947
0.242105263
0.292631579
0.343157895
0.393684211
0.444210526
0.494736842
0.545263158
0.595789474
0.646315789
0.696842105
0.747368421
0.797894737
0.848421053
0.898947368
0.949473684
1
)

21
(
0
0.05
0.1
0.15
0.2
0.25
0.3
0.35
0.4
0.45
0.5
0.55
0.6
0.65
0.7
0.75
0.8
0.85
0.9
0.95
1
)

);
// ************************************************************************* //
