/*--------------------------------*- C++ -*----------------------------------*\
| =========                 |                                                 |
| \\      /  F ield         | OpenFOAM: The Open Source CFD Toolbox           |
|  \\    /   O peration     | Version:  1.0                                   |
|   \\  /    A nd           | Web:      http://www.openfoam.org               |
|    \\/     M anipulation  |                                                 |
\*---------------------------------------------------------------------------*/

FoamFile
{
    version         2.0;
    format          ascii;

    root            "";
    case            "";
    instance        "";
    local           "";

    class           dictionary;
    object          ThermoPopeCloud;
}

// * * * * * * * * * * * * * * * * * * * * * * * * * * * * * * * * * * * * * //
fileName   "H2O";
fields 
(
    {
        N 20;	
	    max 1;
	    min 0;
	    name f;
	}
);

output
( 
    {
        name f;
    }
    {
        name H2O0;
	}
    {
        name H2O1;
    }
    {
        name H2O2;
    }
    {
        name H2O3;
    }
    {
        name H2O4;
    }
    {
        name H2O5;
    }
);

values
(
21
(
0
0.05
0.1
0.15
0.2
0.25
0.3
0.35
0.4
0.45
0.5
0.55
0.6
0.65
0.7
0.75
0.8
0.85
0.9
0.95
1
)

21
(
0
0.124
0.117473684
0.110947368
0.104421053
0.097894737
0.091368421
0.084842105
0.078315789
0.071789474
0.065263158
0.058736842
0.052210526
0.045684211
0.039157895
0.032631579
0.026105263
0.019578947
0.013052632
0.006526316
0
)

21
(
0
0.0992
0.093978947
0.088757895
0.083536842
0.078315789
0.073094737
0.067873684
0.062652632
0.057431579
0.052210526
0.046989474
0.041768421
0.036547368
0.031326316
0.026105263
0.020884211
0.015663158
0.010442105
0.005221053
0
)

21
(
0
0.0744
0.070484211
0.066568421
0.062652632
0.058736842
0.054821053
0.050905263
0.046989474
0.043073684
0.039157895
0.035242105
0.031326316
0.027410526
0.023494737
0.019578947
0.015663158
0.011747368
0.007831579
0.003915789
0
)

21
(
0
0.0496
0.046989474
0.044378947
0.041768421
0.039157895
0.036547368
0.033936842
0.031326316
0.028715789
0.026105263
0.023494737
0.020884211
0.018273684
0.015663158
0.013052632
0.010442105
0.007831579
0.005221053
0.002610526
0
)

21
(
0
0.0248
0.023494737
0.022189474
0.020884211
0.019578947
0.018273684
0.016968421
0.015663158
0.014357895
0.013052632
0.011747368
0.010442105
0.009136842
0.007831579
0.006526316
0.005221053
0.003915789
0.002610526
0.001305263
0
)

21
(
0
0
0
0
0
0
0
0
0
0
0
0
0
0
0
0
0
0
0
0
0
)

);
// ************************************************************************* //
