/*--------------------------------*- C++ -*----------------------------------*\
| =========                 |                                                 |
| \\      /  F ield         | OpenFOAM: The Open Source CFD Toolbox           |
|  \\    /   O peration     | Version:  1.0                                   |
|   \\  /    A nd           | Web:      http://www.openfoam.org               |
|    \\/     M anipulation  |                                                 |
\*---------------------------------------------------------------------------*/

FoamFile
{
    version         2.0;
    format          ascii;

    root            "";
    case            "";
    instance        "";
    local           "";

    class           dictionary;
    object          ThermoPopeCloud;
}

// * * * * * * * * * * * * * * * * * * * * * * * * * * * * * * * * * * * * * //
fileName   "CO2";
fields 
(
    {
        N 20;	
	    max 1;
	    min 0;
	    name f;
	}
);

output
( 
    {
        name f;
    }
    {
        name CO20;
	}
    {
        name CO21;
    }
    {
        name CO22;
    }
    {
        name CO23;
    }
    {
        name CO24;
    }
    {
        name CO25;
    }
);

values
(
21
(
0
0.05
0.1
0.15
0.2
0.25
0.3
0.35
0.4
0.45
0.5
0.55
0.6
0.65
0.7
0.75
0.8
0.85
0.9
0.95
1
)

21
(
0
0.151
0.143052632
0.135105263
0.127157895
0.119210526
0.111263158
0.103315789
0.095368421
0.087421053
0.079473684
0.071526316
0.063578947
0.055631579
0.047684211
0.039736842
0.031789474
0.023842105
0.015894737
0.007947368
0
)

21
(
0
0.1208
0.114442105
0.108084211
0.101726316
0.095368421
0.089010526
0.082652632
0.076294737
0.069936842
0.063578947
0.057221053
0.050863158
0.044505263
0.038147368
0.031789474
0.025431579
0.019073684
0.012715789
0.006357895
0
)

21
(
0
0.0906
0.085831579
0.081063158
0.076294737
0.071526316
0.066757895
0.061989474
0.057221053
0.052452632
0.047684211
0.042915789
0.038147368
0.033378947
0.028610526
0.023842105
0.019073684
0.014305263
0.009536842
0.004768421
0
)

21
(
0
0.0604
0.057221053
0.054042105
0.050863158
0.047684211
0.044505263
0.041326316
0.038147368
0.034968421
0.031789474
0.028610526
0.025431579
0.022252632
0.019073684
0.015894737
0.012715789
0.009536842
0.006357895
0.003178947
0
)

21
(
0
0.0302
0.028610526
0.027021053
0.025431579
0.023842105
0.022252632
0.020663158
0.019073684
0.017484211
0.015894737
0.014305263
0.012715789
0.011126316
0.009536842
0.007947368
0.006357895
0.004768421
0.003178947
0.001589474
0
)

21
(
0
0
0
0
0
0
0
0
0
0
0
0
0
0
0
0
0
0
0
0
0
)

);
// ************************************************************************* //
