/*--------------------------------*- C++ -*----------------------------------*\
| =========                 |                                                 |
| \\      /  F ield         | OpenFOAM: The Open Source CFD Toolbox           |
|  \\    /   O peration     | Version:  1.0                                   |
|   \\  /    A nd           | Web:      http://www.openfoam.org               |
|    \\/     M anipulation  |                                                 |
\*---------------------------------------------------------------------------*/

FoamFile
{
    version         2.0;
    format          ascii;

    root            "";
    case            "";
    instance        "";
    local           "";

    class           dictionary;
    object          ThermoPopeCloud;
}

// * * * * * * * * * * * * * * * * * * * * * * * * * * * * * * * * * * * * * //
fileName   "h";
fields 
(
    {
        N 20;	
	    max 1;
	    min 0;
	    name f;
	}
);

output
( 
    {
        name f;
    }
    {
        name h0;
	}
    {
        name h1;
    }
    {
        name h2;
    }
    {
        name h3;
    }
    {
        name h4;
    }
    {
        name h5;
    }
    {
        name h6;
    }
);

values
(
21
(
0
0.05
0.1
0.15
0.2
0.25
0.3
0.35
0.4
0.45
0.5
0.55
0.6
0.65
0.7
0.75
0.8
0.85
0.9
0.95
1
)

21
(
298
2079.5070202808
1948.0795631825
1731.3159126365
1557.606474259
1413.25
1288.9953198128
1179.5417316693
1081.8073322933
993.3533541342
912
836.3471138846
765.9945397816
699.4551482059
635.7024180967
575.25
517.1977379095
460.645475819
405.2043681747
351.6021840874
298
)

21
(
298
1981.2012480499
1925.8814352574
1717.015600624
1545.4063962559
1402.25
1279.6953978159
1171.5417316693
1074.8073322933
986.3533541342
906
831.3471138846
760.9945397816
695.4551482059
632.7024180967
572.5
515.1977379095
458.7956318253
404.3042121685
350.6521060842
298
)

21
(
298
1813.9953198128
1856.4851794072
1669.8143525741
1508.6060842434
1371.75
1253.0955538222
1147.8420436818
1053.4071762871
967.903276131
889.5
816.7971918877
748.3946957878
684.8049921997
623.7024180967
564.75
508.3978159126
453.9457878315
401.3042121685
349.6521060842
298
)

21
(
298
1694.592823713
1781.3884555382
1617.4629485179
1469.4056162247
1339.75
1225.4957098284
1124.1423556942
1033.0070202808
950.4531981279
874
802.7971918877
736.7948517941
673.8049921997
614.0023400936
557
502.5978939158
449.9457878315
398.4040561622
347.751950078
298
)

21
(
298
1653.0421216849
1745.5897035882
1592.862324493
1450.0054602184
1324.25
1212.4957098284
1113.1423556942
1023.6068642746
941.4531981279
866.5
796.2472698908
730.1950078003
668.5046801872
610.0023400936
554
499.5978939158
447.9457878315
396.503900156
346.751950078
298
)

21
(
298
1606.5912636506
1699.391575663
1560.9613884555
1425.4052262091
1304
1195.8958658346
1098.7925117005
1010.6068642746
930.0031201248
856
787.6973478939
723.1950078003
662.1548361934
604.3022620905
549
495.7979719189
445.0959438378
394.503900156
345.8018720749
298
)

21
(
298
298
298
298
298
298
298
298
298
298
298
298
298
298
298
298
298
298
298
298
298
)


);
// ************************************************************************* //
