/*--------------------------------*- C++ -*----------------------------------*\
| =========                 |                                                 |
| \\      /  F ield         | OpenFOAM: The Open Source CFD Toolbox           |
|  \\    /   O peration     | Version:  1.0                                   |
|   \\  /    A nd           | Web:      http://www.openfoam.org               |
|    \\/     M anipulation  |                                                 |
\*---------------------------------------------------------------------------*/

FoamFile
{
    version         2.0;
    format          ascii;

    root            "";
    case            "";
    instance        "";
    local           "";

    class           dictionary;
    object          ThermoPopeCloud;
}

// * * * * * * * * * * * * * * * * * * * * * * * * * * * * * * * * * * * * * //
fileName   "O2";
fields 
(
    {
        N 20;	
	    max 1;
	    min 0;
	    name f;
	}
);

output
( 
    {
        name f;
    }
    {
        name O20;
	}
    {
        name O21;
    }
    {
        name O22;
    }
    {
        name O23;
    }
    {
        name O24;
    }
    {
        name O25;
    }
    {
        name O26;
    }
);

values
(
21
(
0
0.05
0.1
0.15
0.2
0.25
0.3
0.35
0.4
0.45
0.5
0.55
0.6
0.65
0.7
0.75
0.8
0.85
0.9
0.95
1
)

21
(
0.233
0.0257263495
0.0002319232
1.57624609984399E-005
0.000002456
0.000000565
1.63321645865835E-007
5.48066809672387E-008
2.03335959438377E-008
8.05934087363494E-009
3.339E-009
1.42345397815913E-009
6.2206193447738E-010
2.82920865834634E-010
1.37783385335413E-010
7.34374999999999E-011
4.26632137285491E-011
2.61250702028081E-011
1.56756786271451E-011
7.54695319812794E-012
0
)

21
(
0.233
0.0311822153
0.0011893934
0.0002165225
6.08513533541342E-005
0.00002111
0.00000838
3.64490522620905E-006
1.69090327613105E-006
8.23658112324493E-007
4.19650000000001E-007
2.25114820592824E-007
1.28794851794072E-007
7.91807020280812E-008
5.20617667706708E-008
0.000000036
2.54176638065522E-008
1.76909711388455E-008
1.13610670826833E-008
5.60722464898596E-009
0
)

21
(
0.233
0.0408375975
0.0051349563
0.0018124594
0.0007919076
0.0003872
0.0002055948
0.0001174099
7.22626443057722E-005
4.81102106084243E-005
0.00003465
2.6711255850234E-005
2.16016692667707E-005
1.7926255850234E-005
1.49371099843994E-005
1.22725E-005
9.74690132605303E-006
0.000007289
4.85269422776911E-006
2.42494695787832E-006
0
)

21
(
0.233
0.0505404836
0.0114679407
0.0056183214
0.0032526704
0.00210375
0.001492181
0.001143328
0.0009301138
0.0007886548
0.00068505
0.0006011319
0.0005272144
0.0004581954
0.0003914626
0.000325725
0.0002604174
0.0001952848
0.0001301652
6.50741029641186E-005
0
)

21
(
0.233
0.0552316225
0.015283791
0.0081908019
0.005132493
0.0035775
0.0027115725
0.0021909161
0.0018514228
0.0016080585
0.0014175
0.0012534438
0.0011039883
0.0009611462
0.0008218355
0.0006841
0.0005469545
0.0004100741
0.0002734009
0.0001367005
0
)

21
(
0.233
0.0613668799
0.0210015913
0.0122140133
0.0082019239
0.00607975
0.0048451599
0.0040615476
0.0035174376
0.003102415
0.002758
0.0024510382
0.0021633775
0.0018860218
0.0016136108
0.0013435
0.0010744092
0.0008056085
0.0005370515
0.0002685257
0
)

21
(
0.233
0.221299532
0.209599064
0.197900936
0.186200468
0.1745
0.162799532
0.151099064
0.139400936
0.127700468
0.1165
0.105299532
0.0932010686
0.0815514314
0.0698994657
0.0582475
0.0465955343
0.0349520671
0.0233029329
0.0116516661
0
)

);
// ************************************************************************* //
