/*--------------------------------*- C++ -*----------------------------------*\
| =========                 |                                                 |
| \\      /  F ield         | OpenFOAM: The Open Source CFD Toolbox           |
|  \\    /   O peration     | Version:  1.0                                   |
|   \\  /    A nd           | Web:      http://www.openfoam.org               |
|    \\/     M anipulation  |                                                 |
\*---------------------------------------------------------------------------*/

FoamFile
{
    version         2.0;
    format          ascii;

    root            "";
    case            "";
    instance        "";
    local           "";

    class           dictionary;
    object          ThermoPopeCloud;
}

// * * * * * * * * * * * * * * * * * * * * * * * * * * * * * * * * * * * * * //
fileName   "CH4";
fields 
(
    {
        N 20;	
	    max 1;
	    min 0;
	    name f;
	}
);

output
( 
    {
        name f;
    }
    {
        name CH40;
	}
    {
        name CH41;
    }
    {
        name CH42;
    }
    {
        name CH43;
    }
    {
        name CH44;
    }
    {
        name CH45;
    }
    {
        name CH46;
    }
);

values
(
21
(
0
0.05
0.1
0.15
0.2
0.25
0.3
0.35
0.4
0.45
0.5
0.55
0.6
0.65
0.7
0.75
0.8
0.85
0.9
0.95
1
)

21
(
0
2.60973241809672E-006
0.034084883
0.0848398752
0.1375978939
0.191
0.2446021841
0.2982043682
0.3521957878
0.4063978159
0.4605
0.5146021841
0.5682043682
0.6224457878
0.6763978159
0.73
0.7844021061
0.8382043682
0.8917956318
0.9463478939
1
)

21
(
0
1.23167444617785E-005
0.0325688612
0.0834153705
0.1355978939
0.18925
0.2429021061
0.2972043682
0.3511957878
0.4053978159
0.4595
0.5136021841
0.5672043682
0.6217956318
0.6753978159
0.73
0.7836021841
0.8380542122
0.8917956318
0.9463478939
1
)

21
(
0
6.3863360374415E-005
0.029255741
0.0799893643
0.1325978939
0.18625
0.2406021841
0.2942043682
0.3487956318
0.4033978159
0.457
0.5116021841
0.5662043682
0.6197956318
0.6743978159
0.729
0.7826021841
0.8372043682
0.8917956318
0.9453978159
1
)

21
(
0
0.0002089061
0.0282252855
0.0783193955
0.1305978939
0.18425
0.2386021841
0.2925542122
0.3467956318
0.4013978159
0.456
0.5106021841
0.5648042122
0.6187956318
0.6733978159
0.728
0.7826021841
0.8370542122
0.8907956318
0.9453978159
1
)

21
(
0
0.0003476901
0.0286441248
0.0783319189
0.1305978939
0.184
0.2379021061
0.2922043682
0.3467956318
0.4013978159
0.456
0.5096021841
0.5642043682
0.6187956318
0.6733978159
0.728
0.7826021841
0.8362043682
0.8907956318
0.9453978159
1
)

21
(
0
0.0006474012
0.029961766
0.0790509594
0.1305978939
0.18425
0.2379021061
0.2922043682
0.3467956318
0.4013978159
0.4555
0.5096021841
0.5642043682
0.6187956318
0.6733978159
0.728
0.7826021841
0.8362043682
0.8907956318
0.9453978159
1
)

21
(
0
0.05
0.1003960686
0.1500959438
0.1997979719
0.24975
0.3002020281
0.3499040562
0.3999960998
0.4502979719
0.5
0.5497020281
0.6000039002
0.6500959438
0.6997979719
0.75025
0.8002020281
0.8499040562
0.8995959438
0.9502480499
1
)


);
// ************************************************************************* //
