/*--------------------------------*- C++ -*----------------------------------*\
| =========                 |                                                 |
| \\      /  F ield         | OpenFOAM: The Open Source CFD Toolbox           |
|  \\    /   O peration     | Version:  1.0                                   |
|   \\  /    A nd           | Web:      http://www.openfoam.org               |
|    \\/     M anipulation  |                                                 |
\*---------------------------------------------------------------------------*/

FoamFile
{
    version         2.0;
    format          ascii;

    root            "";
    case            "";
    instance        "";
    local           "";

    class           dictionary;
    object          ThermoPopeCloud;
}

// * * * * * * * * * * * * * * * * * * * * * * * * * * * * * * * * * * * * * //
fileName   "H2O";
fields 
(
    {
        N 20;	
	    max 1;
	    min 0;
	    name f;
	}
);

output
( 
    {
        name f;
    }
    {
        name H2O0;
	}
    {
        name H2O1;
    }
    {
        name H2O2;
    }
    {
        name H2O3;
    }
    {
        name H2O4;
    }
    {
        name H2O5;
    }
    {
        name H2O6;
    }
);

values
(
21
(
0
0.05
0.1
0.15
0.2
0.25
0.3
0.35
0.4
0.45
0.5
0.55
0.6
0.65
0.7
0.75
0.8
0.85
0.9
0.95
1
)

21
(
0.00E+000
0.1092807488
0.123299532
0.116600624
0.109600234
0.10275
0.0957527262
0.0888979524
0.0820645476
0.0752197738
0.068385
0.061544727
0.0547054524
0.0478720476
0.0410272738
0.0341925
0.027349727
0.0205129524
0.0136795476
0.0068389236
0
)

21
(
0.00E+000
0.1054599688
0.122199688
0.116450468
0.109600234
0.10275
0.0956527262
0.0888179524
0.081990546
0.075155273
0.068325
0.0614902262
0.054659454
0.047825546
0.0409972738
0.0341625
0.027329727
0.020494454
0.0136695476
0.0068330733
0
)

21
(
0.00E+000
0.1006242122
0.12
0.114450468
0.108600234
0.102
0.0953077301
0.0885474571
0.0817565445
0.074955273
0.068145
0.061334727
0.054519454
0.0477090445
0.0408932722
0.0340775
0.0272617278
0.0204459555
0.0136315445
0.0068155226
0
)

21
(
0.00E+000
0.0976226365
0.117900156
0.114300312
0.108600234
0.102
0.0955497348
0.0888569618
0.0820965445
0.0752907722
0.068465
0.0616302262
0.0547854524
0.0479420476
0.0410872738
0.0342425
0.0273957254
0.0205429524
0.0136995476
0.0068486739
0
)

21
(
0.00E+000
0.096696131
0.115900156
0.113300312
0.108600234
0.102
0.0956777379
0.0890234633
0.0822725429
0.075465273
0.068635
0.0617802262
0.0549214509
0.0480585491
0.0411942746
0.03433
0.0274657254
0.0206014509
0.0137285491
0.0068662246
0
)

21
(
0.00E+000
0.0953601092
0.114800312
0.112300312
0.107600234
0.10175
0.095625741
0.089042968
0.0823245398
0.0755307722
0.068705
0.0618457254
0.0549814509
0.0481185491
0.0412442746
0.03437
0.0274957254
0.0206214509
0.0137485491
0.006874975
0
)

21
(
0
0
0
0
0
0
0
0
0
0
0
0
0
0
0
0
0
0
0
0
0
)

);
// ************************************************************************* //
