/*--------------------------------*- C++ -*----------------------------------*\
| =========                 |                                                 |
| \\      /  F ield         | OpenFOAM: The Open Source CFD Toolbox           |
|  \\    /   O peration     | Version:  1.0                                   |
|   \\  /    A nd           | Web:      http://www.openfoam.org               |
|    \\/     M anipulation  |                                                 |
\*---------------------------------------------------------------------------*/

FoamFile
{
    version         2.0;
    format          ascii;

    root            "";
    case            "";
    instance        "";
    local           "";

    class           dictionary;
    object          ThermoPopeCloud;
}

// * * * * * * * * * * * * * * * * * * * * * * * * * * * * * * * * * * * * * //
fileName   "CO2";
fields 
(
    {
        N 20;	
	    max 1;
	    min 0;
	    name f;
	}
);

output
( 
    {
        name f;
    }
    {
        name CO20;
	}
    {
        name CO21;
    }
    {
        name CO22;
    }
    {
        name CO23;
    }
    {
        name CO24;
    }
    {
        name CO25;
    }
    {
        name CO26;
    }
);

values
(
21
(
0
0.05
0.1
0.15
0.2
0.25
0.3
0.35
0.4
0.45
0.5
0.55
0.6
0.65
0.7
0.75
0.8
0.85
0.9
0.95
1
)

21
(
0
0.1260416225
0.10349922
0.0982295086
0.0926422231
0.08699
0.0812447699
0.0754590367
0.0696684633
0.0638667317
0.05806
0.0522532683
0.0464475351
0.0406409633
0.0348362324
0.0290275
0.0232237676
0.0174140367
0.0116126646
0.0058063323
0
)

21
(
0
0.1144459906
0.102299532
0.0961394462
0.0905722231
0.08496
0.0793167746
0.0736645476
0.0680004524
0.0623352262
0.056665
0.051000273
0.045335546
0.0396654524
0.0340002262
0.0283325
0.022667773
0.017003046
0.0113302527
0.0056669267
0
)

21
(
0
0.0959889704
0.0920005928
0.0870243994
0.0819802028
0.076885
0.0717757956
0.0666500897
0.0615324103
0.0564037051
0.051275
0.0461462949
0.0410175897
0.0358899103
0.0307612051
0.025635
0.0205137949
0.0153850897
0.0102572106
0.0051277051
0
)

21
(
0
0.077240858
0.0784127457
0.0745053276
0.0702621724
0.06592
0.0615448245
0.057157149
0.052760351
0.0483671763
0.04397
0.0395728237
0.0351756474
0.0307793526
0.0263821763
0.021985
0.0175878237
0.0131906474
0.0087939516
0.0043974259
0
)

21
(
0
0.0689020593
0.0715298128
0.0681392902
0.064300156
0.06034
0.0563448401
0.0523306786
0.0483043214
0.0442816615
0.04026
0.0362328393
0.0322056786
0.0281793214
0.0241521607
0.0201325
0.0161058385
0.0120791771
0.008051922
0.004025961
0
)

21
(
0
0.059170702
0.0628528861
0.0601057449
0.0567881357
0.0533175
0.0497928588
0.0462467161
0.0426982839
0.039139142
0.035585
0.0320263573
0.0284677145
0.0249097855
0.0213511427
0.0177925
0.0142338573
0.0106758151
0.0071168846
0.0035588924
0
)

21
(
0
0
0
0
0
0
0
0
0
0
0
0
0
0
0
0
0
0
0
0
0
)

);
// ************************************************************************* //
