/*--------------------------------*- C++ -*----------------------------------*\
| =========                 |                                                 |
| \\      /  F ield         | OpenFOAM: The Open Source CFD Toolbox           |
|  \\    /   O peration     | Version:  1.0                                   |
|   \\  /    A nd           | Web:      http://www.openfoam.org               |
|    \\/     M anipulation  |                                                 |
\*---------------------------------------------------------------------------*/

FoamFile
{
    version         2.0;
    format          ascii;

    root            "";
    case            "";
    instance        "";
    local           "";

    class           dictionary;
    object          ThermoPopeCloud;
}

// * * * * * * * * * * * * * * * * * * * * * * * * * * * * * * * * * * * * * //
fileName   "N2";
fields 
(
    {
        N 20;	
	    max 1;
	    min 0;
	    name f;
	}
);

output
( 
    {
        name f;
    }
    {
        name N20;
	}
    {
        name N21;
    }
    {
        name N22;
    }
    {
        name N23;
    }
    {
        name N24;
    }
    {
        name N25;
    }
    {
        name N26;
    }
);

values
(
21
(
0
0.05
0.1
0.15
0.2
0.25
0.3
0.35
0.4
0.45
0.5
0.55
0.6
0.65
0.7
0.75
0.8
0.85
0.9
0.95
1
)

21
(
0.767
0.7389486695
0.7388844418
0.7003142297
0.660157193
0.619259435
0.5784001565
0.5374385879
0.4960711809
0.4545156706
0.4130549967
0.3715998192
0.3306426437
0.289041201
0.2477386777
0.2067799999
0.1650243993
0.1238686427
0.082912156
0.0410068502
0
)

21
(
0.767
0.7488995085
0.7417425254
0.7037781927
0.6641687976
0.62301889
0.5821200132
0.5403094869
0.4988115228
0.4571108612
0.4155095804
0.3739070916
0.332800503
0.2907132906
0.249604632
0.207504964
0.1664002905
0.1244482701
0.0832045565
0.0411521005
0
)

21
(
0.767
0.7624853566
0.7536087098
0.7167233089
0.6760297617
0.6344778
0.5921086954
0.5504806752
0.5078431508
0.4651950957
0.42354535
0.3808900828
0.3382369865
0.2965874872
0.2539327696
0.2112752275
0.1696125464
0.1269572976
0.0843107604
0.0426565314
0
)

21
(
0.767
0.7743871158
0.7639938721
0.7272566435
0.6872870293
0.64572625
0.6028110757
0.5602883491
0.5174173589
0.4741555808
0.43087995
0.3875936341
0.3447074736
0.3020247726
0.2587412714
0.215446775
0.1721538494
0.1290169032
0.0865807037
0.0432910101
0
)

21
(
0.767
0.7788224971
0.7686421154
0.7320376771
0.6913692231
0.6500825
0.6073637434
0.5642505737
0.5207760811
0.4772471911
0.4336875
0.3911313066
0.347564514
0.3040053514
0.2604339133
0.2168534
0.1732792974
0.1307049298
0.0871504961
0.043573298
0
)

21
(
0.767
0.7834549076
0.7713834446
0.7363289704
0.6968118124
0.65460275
0.6118341342
0.5684444002
0.5246641069
0.4808298549
0.437452
0.394074695
0.3501830889
0.3062900117
0.262393156
0.218494
0.174593824
0.1316927573
0.087801883
0.043899791
0
)

21
(
0.767
0.728700468
0.6900048674
0.6520031201
0.6140015601
0.57575
0.5369984399
0.4989968799
0.4606029641
0.4220015601
0.3835
0.3449984399
0.3067950312
0.2683526248
0.2303025624
0.1915025
0.1532024376
0.1151438768
0.0771011232
0.0381002839
0
)

);
// ************************************************************************* //
