ELEMENTS
O  H  C N
END
SPECIES
CH4  H2  O2  O  H  OH  HO2  H2O2  H2O  CO  CH CH2 CH3  CH2O  HCO  CH3O  CO2 N2 NO
END
REACTIONS
CH4(+M)=>CH3+H(+M)              6.3E+14           0.00           104000.
LOW  /  1.000E+17     0.00       86000.00/
CH4/6.50/ CO/0.75/ CO2/1.50/ H2/1.00/ H2O/6.50/ N2/0.40/ O2/0.40/
CH3+H(+M)=>CH4(+M)              5.2E+12           0.00            -1310.
LOW  /  8.250E+14     0.00       -19310.00/
CH4/6.50/ CO/0.75/ CO2/1.50/ H2/1.00/ H2O/6.50/ N2/0.40/ O2/0.40/
CH4+H=>CH3+H2                   2.2E+04           3.00             8750.
CH3+H2=>CH4+H                   9.57E+02          3.00             8750.
CH4+OH=>CH3+H2O                 1.6E+06           2.10             2460.
CH3+H2O=>CH4+OH                 3.02E+05          2.10            17422.
CH3+O=>CH2O+H                   6.8E+13           0.00                0.
CH3+O2=>CH3O+O                  5.E+13            0.00            25652.
CH3+OH=>CH2+H2O                 7.6E+06           2.00             5000.
CH3O+H=>CH2O+H2                 2.E+13            0.00                0.
CH3O+M=>CH2O+H+M                2.4E+13           0.00            28812.
CH4/6.5/ H2O/6.5/ CO2/1.5/ CO/0.75/ O2/0.4/ N2/0.4/
CH2+O=>CO+H2                    3.0E13            0.00                0.
CH2+OH=>CH+H2O                  1.13E7            2.00             3000.
CH2O+H=>HCO+H2                  9.0E+13           0.00             3991.
CH2O+OH=>HCO+H2O                3.0E+13           0.00             1195.
CH+O=>CO+H                      5.70E13           0.00                0.
CH+OH=>HCO+H                    3.0E13            0.00                0.
CH+O2=>HCO+O                    3.3E13            0.00                0.
CH+CO2=>HCO+CO                  8.4E13            0.00              200.
HCO+H=>CO+H2                    4.E+13            0.00                0.
HCO+M=>CO+H+M                   1.6E+14           0.00            14700.
CH4/6.5/ H2O/6.5/ CO2/1.5/ CO/0.75/ O2/0.4/ N2/0.4/
CO+OH=>CO2+H                    1.51E+07          1.30             -758.
CO2+H=>CO+OH                    1.57E+09          1.30            21000.
H+O2=>O+OH                      1.55E+14          0.00            16800.
O+OH=>O2+H                      1.2E+13           0.00              690.
O+H2=>OH+H                      1.8E+10           1.00             8826.
OH+H=>O+H2                      8.E+09            1.00             6760.
H2+OH=>H2O+H                    1.17E+09          1.30             3626.
H2O+H=>H2+OH                    5.09E+09          1.30            18588.
OH+OH=>H2O+O                    6.E+08            1.30                0.
H2O+O=>OH+OH                    5.9E+09           1.30            17029.
H+O2+M=>HO2+M                   1.6E+18          -0.80                0.
CH4/6.50/ CO/0.75/ CO2/1.50/ H2/1.00/ H2O/6.50/ N2/0.40/ O2/0.40/
H+HO2=>OH+OH                    1.5E+14           0.00             1004.
H+HO2=>H2+O2                    2.5E+13           0.00              700.
OH+HO2=>H2O+O2                  2.E+13            0.00             1000.
HO2+HO2=>H2O2+O2                8.E+13            0.00                0.
H2O2+M=>OH+OH+M                 1.3E+17           0.00            45500.
CH4/6.5/ H2O/6.5/ CO2/1.5/ CO/0.75/ O2/0.4/ N2/0.4/
OH+OH+M=>H2O2+M                 9.86E+14          0.00            -5070.
CH4/6.5/ H2O/6.5/ CO2/1.5/ CO/0.75/ O2/0.4/ N2/0.4/
H2O2+OH=>H2O+HO2                1.E+13            0.00             1800.
H2O+HO2=>H2O2+OH                2.86E+13          0.00            32790.
OH+H+M=>H2O+M                   2.2E+22          -2.00                0.
CH4/6.5/ H2O/6.5/ CO2/1.5/ CO/0.75/ O2/0.4/ N2/0.4/
H+H+M=>H2+M                     1.8E+18          -1.00                0.
CH4/6.5/ H2O/6.5/ CO2/1.5/ CO/0.75/ O2/0.4/ N2/0.4/
N2+2O=>2NO           	        1.8E+14           0.00            76004. 
     FORD /N2 1/   
     FORD /O 1/ 
END
