/*--------------------------------*- C++ -*----------------------------------*\
| =========                 |                                                 |
| \\      /  F ield         | OpenFOAM: The Open Source CFD Toolbox           |
|  \\    /   O peration     | Version:  2.2.0                                 |
|   \\  /    A nd           | Web:      www.OpenFOAM.org                      |
|    \\/     M anipulation  |                                                 |
\*---------------------------------------------------------------------------*/
FoamFile
{
    version     2.0;
    format      ascii;
    class       dictionary;
    location    "constant";
    object      thermophysicalProperties;
}
// * * * * * * * * * * * * * * * * * * * * * * * * * * * * * * * * * * * * * //

thermoType
{
    type            hePsiThermo;
    mixture         reactingMixture;
    transport       sutherland;
    thermo          janaf;
    energy          sensibleEnthalpy;
    equationOfState perfectGas;
    specie          specie;
}

inertSpecie N2;

fuel        CH4;

CHEMKINFile "$FOAM_CASE/chemkin/chem.dat";

CHEMKINThermoFile "$FOAM_CASE/chemkin/therm.dat";

CHEMKINTransportFile "$FOAM_CASE/chemkin/transportProperties";


/*chemistryReader foamChemistryReader;*/

/*foamChemistryFile "$FOAM_CASE/constant/reactions";*/

/*foamChemistryThermoFile "$FOAM_CASE/constant/thermo.compressibleGas";*/




// ************************************************************************* //
