/*--------------------------------*- C++ -*----------------------------------*\
| =========                 |                                                 |
| \\      /  F ield         | OpenFOAM: The Open Source CFD Toolbox           |
|  \\    /   O peration     | Version:  1.0                                   |
|   \\  /    A nd           | Web:      http://www.openfoam.org               |
|    \\/     M anipulation  |                                                 |
\*---------------------------------------------------------------------------*/

FoamFile
{
    version         2.0;
    format          ascii;

    root            "";
    case            "";
    instance        "";
    local           "";

    class           dictionary;
    object          ThermoPopeCloud;
}

// * * * * * * * * * * * * * * * * * * * * * * * * * * * * * * * * * * * * * //
fileName   "CO";
fields 
(
    {
        N 79;	
	    max 1;
	    min 0;
	    name f;
	}
);

output
( 
    {
        name f;
    }
    {
        name CO0;
	}
    {
        name CO1;
    }

);

values
(
80
(
0
0.01266
0.02532
0.03797
0.05063
0.06329
0.07595
0.08861
0.10127
0.11392
0.12658
0.13924
0.1519
0.16456
0.17722
0.18987
0.20253
0.21519
0.22785
0.24051
0.25316
0.26582
0.27848
0.29114
0.3038
0.31646
0.32911
0.34177
0.35443
0.36709
0.37975
0.39241
0.40506
0.41772
0.43038
0.44304
0.4557
0.46835
0.48101
0.49367
0.50633
0.51899
0.53165
0.5443
0.55696
0.56962
0.58228
0.59494
0.60759
0.62025
0.63291
0.64557
0.65823
0.67089
0.68354
0.6962
0.70886
0.72152
0.73418
0.74684
0.75949
0.77215
0.78481
0.79747
0.81013
0.82278
0.83544
0.8481
0.86076
0.87342
0.88608
0.89873
0.91139
0.92405
0.93671
0.94937
0.96203
0.97468
0.98734
1
)

80
(
0
1.03E-04
2.31E-04
9.89E-04
8.26E-03
3.88E-02
4.07E-02
4.08E-02
4.05E-02
4.00E-02
3.94E-02
3.88E-02
3.82E-02
3.76E-02
3.70E-02
3.64E-02
3.58E-02
3.52E-02
3.46E-02
3.41E-02
3.35E-02
3.29E-02
3.23E-02
3.18E-02
3.12E-02
3.06E-02
3.00E-02
2.95E-02
2.89E-02
2.83E-02
2.78E-02
2.72E-02
2.66E-02
2.61E-02
2.55E-02
2.49E-02
2.44E-02
2.38E-02
2.32E-02
2.27E-02
2.21E-02
2.15E-02
2.10E-02
2.04E-02
1.98E-02
1.93E-02
1.87E-02
1.81E-02
1.76E-02
1.70E-02
1.64E-02
1.59E-02
1.53E-02
1.47E-02
1.42E-02
1.36E-02
1.30E-02
1.25E-02
1.19E-02
1.13E-02
1.08E-02
1.02E-02
9.63E-03
9.06E-03
8.50E-03
7.93E-03
7.37E-03
6.80E-03
6.23E-03
5.67E-03
5.10E-03
4.53E-03
3.97E-03
3.40E-03
2.83E-03
2.27E-03
1.70E-03
1.13E-03
5.67E-04
0
)

80
(
0
0
0
0
0
0
0
0
0
0
0
0
0
0
0
0
0
0
0
0
0
0
0
0
0
0
0
0
0
0
0
0
0
0
0
0
0
0
0
0
0
0
0
0
0
0
0
0
0
0
0
0
0
0
0
0
0
0
0
0
0
0
0
0
0
0
0
0
0
0
0
0
0
0
0
0
0
0
0
0
)
);
// ************************************************************************* //
