/*--------------------------------*- C++ -*----------------------------------*\
| =========                 |                                                 |
| \\      /  F ield         | OpenFOAM: The Open Source CFD Toolbox           |
|  \\    /   O peration     | Version:  1.0                                   |
|   \\  /    A nd           | Web:      http://www.openfoam.org               |
|    \\/     M anipulation  |                                                 |
\*---------------------------------------------------------------------------*/

FoamFile
{
    version         2.0;
    format          ascii;

    root            "";
    case            "";
    instance        "";
    local           "";

    class           dictionary;
    object          ThermoPopeCloud;
}

// * * * * * * * * * * * * * * * * * * * * * * * * * * * * * * * * * * * * * //
fileName   "H2";
fields 
(
    {
        N 79;	
	    max 1;
	    min 0;
	    name f;
	}
);

output
( 
    {
        name f;
    }
    {
        name H20;
	}
    {
        name H21;
    }
);

values
(
80
(
0
0.01266
0.02532
0.03797
0.05063
0.06329
0.07595
0.08861
0.10127
0.11392
0.12658
0.13924
0.1519
0.16456
0.17722
0.18987
0.20253
0.21519
0.22785
0.24051
0.25316
0.26582
0.27848
0.29114
0.3038
0.31646
0.32911
0.34177
0.35443
0.36709
0.37975
0.39241
0.40506
0.41772
0.43038
0.44304
0.4557
0.46835
0.48101
0.49367
0.50633
0.51899
0.53165
0.5443
0.55696
0.56962
0.58228
0.59494
0.60759
0.62025
0.63291
0.64557
0.65823
0.67089
0.68354
0.6962
0.70886
0.72152
0.73418
0.74684
0.75949
0.77215
0.78481
0.79747
0.81013
0.82278
0.83544
0.8481
0.86076
0.87342
0.88608
0.89873
0.91139
0.92405
0.93671
0.94937
0.96203
0.97468
0.98734
1
)

80
(
0
7.94E-07
2.40E-06
2.60E-05
2.44E-04
1.52E-03
1.77E-03
1.87E-03
1.94E-03
2.00E-03
2.03E-03
2.06E-03
2.07E-03
2.07E-03
2.07E-03
2.06E-03
2.04E-03
2.02E-03
2.00E-03
1.98E-03
1.95E-03
1.93E-03
1.90E-03
1.87E-03
1.84E-03
1.81E-03
1.77E-03
1.74E-03
1.71E-03
1.68E-03
1.64E-03
1.61E-03
1.58E-03
1.54E-03
1.51E-03
1.47E-03
1.44E-03
1.41E-03
1.37E-03
1.34E-03
1.31E-03
1.27E-03
1.24E-03
1.20E-03
1.17E-03
1.14E-03
1.10E-03
1.07E-03
1.04E-03
1.00E-03
9.69E-04
9.36E-04
9.02E-04
8.69E-04
8.35E-04
8.02E-04
7.68E-04
7.35E-04
7.02E-04
6.68E-04
6.35E-04
6.01E-04
5.68E-04
5.35E-04
5.01E-04
4.68E-04
4.34E-04
4.01E-04
3.67E-04
3.34E-04
3.01E-04
2.67E-04
2.34E-04
2.00E-04
1.67E-04
1.34E-04
1.00E-04
6.68E-05
3.34E-05
0
)

80
(
0
0
0
0
0
0
0
0
0
0
0
0
0
0
0
0
0
0
0
0
0
0
0
0
0
0
0
0
0
0
0
0
0
0
0
0
0
0
0
0
0
0
0
0
0
0
0
0
0
0
0
0
0
0
0
0
0
0
0
0
0
0
0
0
0
0
0
0
0
0
0
0
0
0
0
0
0
0
0
0
)
);
// ************************************************************************* //
