/*--------------------------------*- C++ -*----------------------------------*\
| =========                 |                                                 |
| \\      /  F ield         | OpenFOAM: The Open Source CFD Toolbox           |
|  \\    /   O peration     | Version:  1.0                                   |
|   \\  /    A nd           | Web:      http://www.openfoam.org               |
|    \\/     M anipulation  |                                                 |
\*---------------------------------------------------------------------------*/

FoamFile
{
    version         2.0;
    format          ascii;

    root            "";
    case            "";
    instance        "";
    local           "";

    class           dictionary;
    object          ThermoPopeCloud;
}

// * * * * * * * * * * * * * * * * * * * * * * * * * * * * * * * * * * * * * //
fileName   "N2";
fields 
(
    {
        N 79;	
	    max 1;
	    min 0;
	    name f;
	}
);

output
( 
    {
        name f;
    }
    {
        name N20;
	}
    {
        name N21;
    }
);

values
(
80
(
0
0.01266
0.02532
0.03797
0.05063
0.06329
0.07595
0.08861
0.10127
0.11392
0.12658
0.13924
0.1519
0.16456
0.17722
0.18987
0.20253
0.21519
0.22785
0.24051
0.25316
0.26582
0.27848
0.29114
0.3038
0.31646
0.32911
0.34177
0.35443
0.36709
0.37975
0.39241
0.40506
0.41772
0.43038
0.44304
0.4557
0.46835
0.48101
0.49367
0.50633
0.51899
0.53165
0.5443
0.55696
0.56962
0.58228
0.59494
0.60759
0.62025
0.63291
0.64557
0.65823
0.67089
0.68354
0.6962
0.70886
0.72152
0.73418
0.74684
0.75949
0.77215
0.78481
0.79747
0.81013
0.82278
0.83544
0.8481
0.86076
0.87342
0.88608
0.89873
0.91139
0.92405
0.93671
0.94937
0.96203
0.97468
0.98734
1
)

80
(
0.767
0.757786206
0.747676905
0.7391853395
0.7319010172
0.7186816
0.7094671
0.70106232
0.69189874
0.68372178
0.673472348
0.665101452
0.655821014
0.646918842
0.6369433005
0.6269825647
0.618037722
0.6081058185
0.5991668791
0.5882409181
0.5793269437
0.5694039607
0.5599929722
0.5498129802
0.5396329857
0.5304549896
0.5202769924
0.5110989943
0.5009319958
0.4907549968
0.4815679976
0.4713909982
0.4612249986
0.452047999
0.4418819992
0.4316959994
0.4225199995
0.4123529996
0.4021769997
0.3930009998
0.3828249998
0.3726479999
0.3634819999
0.3533059999
0.3441189999
0.333953
0.323777
0.3146
0.304424
0.294247
0.2850808
0.2749043
0.2647178
0.2555512
0.2453847
0.2351981
0.2260216
0.215855
0.2066685
0.1965019
0.1863353
0.1771487
0.1669711
0.1568015
0.1476309
0.1374513
0.1272708
0.1181012
0.1079306
0.097751
0.0885704
0.0784008
0.0682302
0.0590466
0.048875
0.0397004
0.0295248
0.01935019
0.0101751
0
)

80
(
0.767
0.75734
0.74768
0.73803
0.72837
0.71871
0.70905
0.69939
0.69
0.68
0.669
0.66
0.65
0.64
0.631
0.621
0.611
0.602
0.592
0.582
0.573
0.563
0.554
0.544
0.534
0.525
0.515
0.505
0.496
0.486
0.475
0.466
0.456
0.446
0.437
0.427
0.417
0.408
0.398
0.388
0.379
0.369
0.359
0.35
0.34
0.33
0.32067
0.31062
0.30057
0.29152
0.28147
0.27142
0.26237
0.25232
0.24227
0.23322
0.22316
0.21311
0.20406
0.19401
0.18496
0.17491
0.16486
0.15581
0.14576
0.13571
0.12666
0.11661
0.10656
0.09751
0.08746
0.07741
0.06835
0.0583
0.04825
0.0392
0.029152
0.019101
0.010051
0
)
);
// ************************************************************************* //
