/*-------------------------------*- C++ -*----------------------------------*\
| =========                 |                                                 |
| \\      /  F ield         | OpenFOAM: The Open Source CFD Toolbox           |
|  \\    /   O peration     | Version:  2.1.0                                 |
|   \\  /    A nd           | Web:      www.OpenFOAM.org                      |
|    \\/     M anipulation  |                                                 |
\*---------------------------------------------------------------------------*/
FoamFile
{
    version     2.0;
    format      ascii;
    class       dictionary;
    location    "system";
    object      fvSchemes;
}
// * * * * * * * * * * * * * * * * * * * * * * * * * * * * * * * * * * * * * //

ddtSchemes
{
    default            backward;
}

gradSchemes
{
    default            Gauss linear;
}

divSchemes
{
    default            Gauss linear;
    div(phi,U)         Gauss linear;   
    div(phi,Yi_h)      Gauss multivariateSelection
    {
	default              limitedLinear01 1;
        h                    limitedLinear 1 ;
    };
    div(phi,Xii)       Gauss multivariateSelection
    {
        cLES                   limitedLinear01 1;
    };
    div(phid,p)        Gauss limitedLinear  1;
}

laplacianSchemes
{
    default            Gauss linear orthogonal;
}

interpolationSchemes
{
    default            linear;
}

snGradSchemes
{
    default            orthogonal;
}

fluxRequired
{
    default no;
       p      ;
}


// ************************************************************************* //
