/*--------------------------------*- C++ -*----------------------------------*\
| =========                 |                                                 |
| \\      /  F ield         | OpenFOAM: The Open Source CFD Toolbox           |
|  \\    /   O peration     | Version:  1.0                                   |
|   \\  /    A nd           | Web:      http://www.openfoam.org               |
|    \\/     M anipulation  |                                                 |
\*---------------------------------------------------------------------------*/

FoamFile
{
    version         2.0;
    format          ascii;

    root            "";
    case            "";
    instance        "";
    local           "";

    class           dictionary;
    object          ThermoPopeCloud;
}

// * * * * * * * * * * * * * * * * * * * * * * * * * * * * * * * * * * * * * //
fileName   "h";
fields 
(
    {
        N 20;	
	    max 1;
	    min 0;
	    name f;
	}
);

output
( 
    {
        name f;
    }
    {
        name h0;
    }
    {
        name h1;
    }
    {
        name h2;
    }
    {
        name h3;
    }
    {
        name h4;
    }
    {
        name h5;
    }
    {
        name h6;
    }
    {
        name h7;
    }
    {
        name h8;
    }
    {
        name h9;
    }
 
);

values
(
21
(
0
0.05
0.1
0.15
0.2
0.25
0.3
0.35
0.4
0.45
0.5
0.55
0.6
0.65
0.7
0.75
0.8
0.85
0.9
0.95
1
)

21
(
1045.00
1116.47
1188.37
1258.05
1321.67
1375.87
1417.80
1445.09
1455.90
1448.87
1423.14
1378.34
1314.62
1232.62
1133.47
1018.80
890.75
751.96
605.55
455.15
305.00
)

21
(
1045.00
1117.11
1188.28
1256.97
1318.80
1369.68
1406.03
1425.00
1424.62
1403.91
1362.89
1302.52
1224.68
1131.94
1027.37
914.27
795.85
674.78
552.78
430.06
305.00
)

21
(
1045.00
1117.75
1188.20
1255.88
1315.93
1363.50
1394.26
1404.90
1393.34
1358.95
1302.63
1226.71
1134.74
1031.25
921.26
809.75
700.95
597.60
500.01
404.96
305.00
)

21
(
1045.00
1118.40
1188.11
1254.79
1313.06
1357.31
1382.50
1384.81
1362.05
1313.99
1242.38
1150.89
1044.80
930.57
815.16
705.22
606.04
520.43
447.24
379.87
305.00
)

21
(
1045.00
1119.04
1188.03
1253.70
1310.19
1351.12
1370.73
1364.71
1330.77
1269.03
1182.13
1075.07
954.86
829.89
709.06
600.69
511.14
443.25
394.47
354.77
305.00
)

21
(
1045.00
1096.83
1144.62
1189.76
1227.55
1252.90
1261.18
1248.97
1214.42
1157.62
1080.70
987.66
884.09
776.71
672.65
578.55
499.51
437.80
391.38
352.22
305.00
)

21
(
1045.00
1074.62
1101.22
1125.82
1144.91
1154.67
1151.64
1133.23
1098.06
1046.22
979.28
900.24
813.32
723.53
636.24
556.41
487.88
432.35
388.28
349.66
305.00
)

21
(
1045.00
1052.42
1057.81
1061.88
1062.28
1056.45
1042.09
1017.48
981.71
934.81
877.85
812.83
742.54
670.36
599.82
534.28
476.26
426.90
385.19
347.11
305.00
)

21
(
1045.00
1030.21
1014.41
997.94
979.64
958.22
932.55
901.74
865.35
823.41
776.43
725.41
671.77
617.18
563.41
512.14
464.63
421.45
382.09
344.55
305.00
)

21
(
1045.00
1008.00
971.00
934.00
897.00
860.00
823.00
786.00
749.00
712.00
675.00
638.00
601.00
564.00
527.00
490.00
453.00
416.00
379.00
342.00
305.00
)

);
// ************************************************************************* //
