/*--------------------------------*- C++ -*----------------------------------*\
| =========                 |                                                 |
| \\      /  F ield         | OpenFOAM: The Open Source CFD Toolbox           |
|  \\    /   O peration     | Version:  1.0                                   |
|   \\  /    A nd           | Web:      http://www.openfoam.org               |
|    \\/     M anipulation  |                                                 |
\*---------------------------------------------------------------------------*/

FoamFile
{
    version         2.0;
    format          ascii;

    root            "";
    case            "";
    instance        "";
    local           "";

    class           dictionary;
    object          ThermoPopeCloud;
}

// * * * * * * * * * * * * * * * * * * * * * * * * * * * * * * * * * * * * * //
fileName   "H2";
fields 
(
    {
        N 20;	
	    max 1;
	    min 0;
	    name f;
	}
);

output
( 
    {
        name f;
    }
    {
        name H20;
	}
    {
        name H21;
    }
    {
        name H22;
    }
    {
        name H23;
    }
    {
        name H24;
    }
    {
        name H25;
    }
);

values
(
21
(
0
0.05
0.1
0.15
0.2
0.25
0.3
0.35
0.4
0.45
0.5
0.55
0.6
0.65
0.7
0.75
0.8
0.85
0.9
0.95
1
)

21
(
0.00000
0.00000
0.00000
0.00000
0.00005
0.00020
0.00041
0.00069
0.00103
0.00143
0.00317
0.00580
0.00830
0.01068
0.01294
0.01508
0.01710
0.01901
0.02079
0.02246
0.02360
)

21
(
0.00000
0.00024
0.00047
0.00071
0.00099
0.00134
0.00175
0.00220
0.00271
0.00327
0.00490
0.00723
0.00947
0.01161
0.01366
0.01561
0.01746
0.01922
0.02088
0.02245
0.02360
)

21
(
0.00000
0.00047
0.00094
0.00142
0.00192
0.00248
0.00308
0.00372
0.00439
0.00510
0.00662
0.00867
0.01064
0.01254
0.01437
0.01613
0.01781
0.01943
0.02097
0.02244
0.02360
)

21
(
0.00000
0.00071
0.00142
0.00212
0.00285
0.00362
0.00441
0.00523
0.00607
0.00694
0.00835
0.01011
0.01181
0.01347
0.01509
0.01665
0.01817
0.01964
0.02106
0.02243
0.02360
)

21
(
0.00000
0.00094
0.00189
0.00283
0.00379
0.00476
0.00575
0.00675
0.00776
0.00878
0.01008
0.01154
0.01299
0.01441
0.01580
0.01718
0.01852
0.01985
0.02115
0.02243
0.02360
)

21
(
0.00000
0.00118
0.00236
0.00354
0.00472
0.00590
0.00708
0.00826
0.00944
0.01062
0.01180
0.01298
0.01416
0.01534
0.01652
0.01770
0.01888
0.02006
0.02124
0.02242
0.02360
)

);
// ************************************************************************* //
