/*--------------------------------*- C++ -*----------------------------------*\
| =========                 |                                                 |
| \\      /  F ield         | OpenFOAM: The Open Source CFD Toolbox           |
|  \\    /   O peration     | Version:  1.0                                   |
|   \\  /    A nd           | Web:      http://www.openfoam.org               |
|    \\/     M anipulation  |                                                 |
\*---------------------------------------------------------------------------*/

FoamFile
{
    version         2.0;
    format          ascii;

    root            "";
    case            "";
    instance        "";
    local           "";

    class           dictionary;
    object          ThermoPopeCloud;
}

// * * * * * * * * * * * * * * * * * * * * * * * * * * * * * * * * * * * * * //
fileName   "O2";
fields 
(
    {
        N 20;	
	    max 1;
	    min 0;
	    name f;
	}
);

output
( 
    {
        name f;
    }
    {
        name O20;
	}
    {
        name O21;
    }
    {
        name O22;
    }
    {
        name O23;
    }
    {
        name O24;
    }
    {
        name O25;
    }
);

values
(
21
(
0
0.05
0.1
0.15
0.2
0.25
0.3
0.35
0.4
0.45
0.5
0.55
0.6
0.65
0.7
0.75
0.8
0.85
0.9
0.95
1
)

21
(
0.17200
0.15059
0.13128
0.11288
0.09539
0.07881
0.06313
0.04835
0.03449
0.02153
0.01428
0.01255
0.01087
0.00923
0.00765
0.00611
0.00461
0.00316
0.00176
0.00041
0.00000
)

21
(
0.17200
0.15315
0.13599
0.11955
0.10383
0.08885
0.07458
0.06104
0.04823
0.03614
0.02862
0.02552
0.02245
0.01943
0.01644
0.01349
0.01057
0.00769
0.00485
0.00205
0.00000
)

21
(
0.17200
0.15571
0.14069
0.12621
0.11228
0.09888
0.08604
0.07373
0.06197
0.05076
0.04297
0.03849
0.03404
0.02962
0.02523
0.02086
0.01653
0.01222
0.00794
0.00368
0.00000
)

21
(
0.17200
0.15828
0.14539
0.13287
0.12072
0.10892
0.09749
0.08642
0.07572
0.06537
0.05731
0.05146
0.04563
0.03981
0.03402
0.02824
0.02248
0.01675
0.01103
0.00532
0.00000
)

21
(
0.17200
0.16084
0.15010
0.13954
0.12916
0.11896
0.10895
0.09911
0.08946
0.07999
0.07166
0.06443
0.05721
0.05001
0.04281
0.03562
0.02844
0.02127
0.01411
0.00696
0.00000
)

21
(
0.17200
0.16340
0.15480
0.14620
0.13760
0.12900
0.12040
0.11180
0.10320
0.09460
0.08600
0.07740
0.06880
0.06020
0.05160
0.04300
0.03440
0.02580
0.01720
0.00860
0.00000
)


);
// ************************************************************************* //
