/*--------------------------------*- C++ -*----------------------------------*\
| =========                 |                                                 |
| \\      /  F ield         | OpenFOAM: The Open Source CFD Toolbox           |
|  \\    /   O peration     | Version:  1.0                                   |
|   \\  /    A nd           | Web:      http://www.openfoam.org               |
|    \\/     M anipulation  |                                                 |
\*---------------------------------------------------------------------------*/

FoamFile
{
    version         2.0;
    format          ascii;

    root            "";
    case            "";
    instance        "";
    local           "";

    class           dictionary;
    object          ThermoPopeCloud;
}

// * * * * * * * * * * * * * * * * * * * * * * * * * * * * * * * * * * * * * //
fileName   "H2O";
fields 
(
    {
        N 20;	
	    max 1;
	    min 0;
	    name f;
	}
);

output
( 
    {
        name f;
    }
    {
        name H2O0;
	}
    {
        name H2O1;
    }
    {
        name H2O2;
    }
    {
        name H2O3;
    }
    {
        name H2O4;
    }
    {
        name H2O5;
    }
);

values
(
21
(
0
0.05
0.1
0.15
0.2
0.25
0.3
0.35
0.4
0.45
0.5
0.55
0.6
0.65
0.7
0.75
0.8
0.85
0.9
0.95
1
)

21
(
0.06370
0.07242
0.08051
0.08765
0.09385
0.09911
0.10343
0.10681
0.10925
0.11074
0.10218
0.08560
0.07041
0.05662
0.04422
0.03322
0.02361
0.01539
0.00857
0.00314
0.00000
)

21
(
0.06370
0.07004
0.07587
0.08095
0.08527
0.08885
0.09166
0.09373
0.09504
0.09560
0.08811
0.07421
0.06143
0.04976
0.03920
0.02976
0.02143
0.01422
0.00813
0.00315
0.00000
)

21
(
0.06370
0.06766
0.07124
0.07425
0.07670
0.07858
0.07990
0.08065
0.08084
0.08046
0.07405
0.06282
0.05244
0.04289
0.03418
0.02630
0.01926
0.01306
0.00769
0.00316
0.00000
)

21
(
0.06370
0.06528
0.06660
0.06755
0.06812
0.06831
0.06813
0.06757
0.06663
0.06532
0.05998
0.05144
0.04345
0.03603
0.02916
0.02284
0.01709
0.01189
0.00725
0.00317
0.00000
)

21
(
0.06370
0.06290
0.06197
0.06085
0.05954
0.05804
0.05636
0.05449
0.05243
0.05018
0.04592
0.04005
0.03447
0.02916
0.02413
0.01938
0.01491
0.01072
0.00681
0.00318
0.00000
)

21
(
0.06370
0.06052
0.05733
0.05415
0.05096
0.04778
0.04459
0.04141
0.03822
0.03504
0.03185
0.02867
0.02548
0.02230
0.01911
0.01593
0.01274
0.00955
0.00637
0.00318
0.00000
)

);
// ************************************************************************* //
