/*--------------------------------*- C++ -*----------------------------------*\
| =========                 |                                                 |
| \\      /  F ield         | OpenFOAM: The Open Source CFD Toolbox           |
|  \\    /   O peration     | Version:  1.0                                   |
|   \\  /    A nd           | Web:      http://www.openfoam.org               |
|    \\/     M anipulation  |                                                 |
\*---------------------------------------------------------------------------*/

FoamFile
{
    version         2.0;
    format          ascii;

    root            "";
    case            "";
    instance        "";
    local           "";

    class           dictionary;
    object          ThermoPopeCloud;
}

// * * * * * * * * * * * * * * * * * * * * * * * * * * * * * * * * * * * * * //
fileName   "h";
fields 
(
    {
        N 20;	
	    max 1;
	    min 0;
	    name f;
	}
);

output
( 
    {
        name f;
    }
    {
        name h0;
	}
    {
        name h1;
    }
    {
        name h2;
    }
    {
        name h3;
    }
    {
        name h4;
    }
    {
        name h5;
    }
);

values
(
21
(
0
0.05
0.1
0.15
0.2
0.25
0.3
0.35
0.4
0.45
0.5
0.55
0.6
0.65
0.7
0.75
0.8
0.85
0.9
0.95
1
)

21
(
294.00
706.19
1045.85
1330.44
1558.39
1729.20
1843.43
1902.72
1909.74
1868.27
1783.14
1660.23
1506.52
1330.02
1139.83
946.11
760.08
594.05
461.36
376.45
294.00
)

21
(
294.00
623.75
895.48
1123.15
1305.51
1442.16
1533.55
1580.97
1586.59
1553.42
1485.31
1386.99
1264.01
1122.81
970.66
815.69
666.87
534.04
427.89
359.96
294.00
)

21
(
294.00
541.31
745.11
915.86
1052.64
1155.12
1223.66
1259.23
1263.44
1238.56
1187.48
1113.74
1021.51
915.61
801.50
685.26
573.65
474.03
394.42
343.47
294.00
)

21
(
294.00
458.88
594.74
708.58
799.76
868.08
913.77
937.49
940.30
923.71
889.66
840.49
779.01
708.41
632.33
554.84
480.43
414.02
360.94
326.98
294.00
)

21
(
294.00
376.44
444.37
501.29
546.88
581.04
603.89
615.74
617.15
608.85
591.83
567.25
536.50
501.20
463.17
424.42
387.22
354.01
327.47
310.49
294.00
)

21
(
294.00
294.00
294.00
294.00
294.00
294.00
294.00
294.00
294.00
294.00
294.00
294.00
294.00
294.00
294.00
294.00
294.00
294.00
294.00
294.00
294.00
)

);
// ************************************************************************* //
