/*--------------------------------*- C++ -*----------------------------------*\
| =========                 |                                                 |
| \\      /  F ield         | OpenFOAM: The Open Source CFD Toolbox           |
|  \\    /   O peration     | Version:  1.0                                   |
|   \\  /    A nd           | Web:      http://www.openfoam.org               |
|    \\/     M anipulation  |                                                 |
\*---------------------------------------------------------------------------*/

FoamFile
{
    version         2.0;
    format          ascii;

    root            "";
    case            "";
    instance        "";
    local           "";

    class           dictionary;
    object          ThermoPopeCloud;
}

// * * * * * * * * * * * * * * * * * * * * * * * * * * * * * * * * * * * * * //
fileName   "N2";
fields 
(
    {
        N 20;	
	    max 1;
	    min 0;
	    name f;
	}
);

output
( 
    {
        name f;
    }
    {
        name N20;
	}
    {
        name N21;
	}
    {
        name N22;
	}
    {
        name N23;
	}
    {
        name N24;
	}
    {
        name N25;
	}
);

values
(
21
(
0
0.05
0.1
0.15
0.2
0.25
0.3
0.35
0.4
0.45
0.5
0.55
0.6
0.65
0.7
0.75
0.8
0.85
0.9
0.95
1
)

21
(
0.767
0.762
0.756
0.750
0.744
0.738
0.732
0.726
0.720
0.714
0.708
0.702
0.696
0.690
0.683
0.677
0.671
0.665
0.659
0.653
0.647
)

21
(
0.767
0.762
0.756
0.750
0.744
0.738
0.732
0.726
0.720
0.714
0.708
0.702
0.696
0.690
0.683
0.677
0.671
0.665
0.659
0.653
0.647
)

21
(
0.767
0.762
0.756
0.750
0.744
0.738
0.732
0.726
0.720
0.714
0.708
0.702
0.696
0.690
0.683
0.677
0.671
0.665
0.659
0.653
0.647
)

21
(
0.767
0.762
0.756
0.750
0.744
0.738
0.732
0.726
0.720
0.714
0.708
0.702
0.696
0.690
0.683
0.677
0.671
0.665
0.659
0.653
0.647
)

21
(
0.767
0.762
0.756
0.750
0.744
0.738
0.732
0.726
0.720
0.714
0.708
0.702
0.696
0.690
0.683
0.677
0.671
0.665
0.659
0.653
0.647
)

21
(
0.767
0.762
0.756
0.750
0.744
0.738
0.732
0.726
0.720
0.714
0.708
0.702
0.696
0.690
0.683
0.677
0.671
0.665
0.659
0.653
0.647
)


);
// ************************************************************************* //
