/*--------------------------------*- C++ -*----------------------------------*\
| =========                 |                                                 |
| \\      /  F ield         | OpenFOAM: The Open Source CFD Toolbox           |
|  \\    /   O peration     | Version:  2.4.x                                 |
|   \\  /    A nd           | Web:      http://www.openfoam.org               |
|    \\/     M anipulation  |                                                 |
\*---------------------------------------------------------------------------*/

FoamFile
{
    version         2.0;
    format          ascii;

    root            "";
    case            "";
    instance        "";
    local           "";

    class           dictionary;
    object          mmcVariablesDefinitions;
}   
    
variables
{ 
    z
    {
        name            z;
        couplingName    z;
        passive         true;
        mixStep         1;
        MMCType         couplingVar;
    }

    sPx
    {
        name            sPx;
        MMCType         referenceVar;
        referenceType   sde;
    }

    sPy
    {
        name            sPy;
        MMCType         referenceVar;
        referenceType   sde;
    }

    sPz
    {
        name            sPz;
        MMCType         referenceVar;
        referenceType   sde;
    }
}
