ELEMENTS
H O N 
END
SPECIES
H2 O2 H2O H O OH HO2 H2O2  N2
END
REACTIONS
H+O2=O+OH                 1.915E+14  0.00  1.6439E+04
O+H2=H+OH                 0.508E+05  2.67  0.629E+04   
H2+OH=H2O+H               0.216E+09  1.51  0.343E+04
O+H2O=OH+OH               2.97e+06   2.02  1.34e+4
H2+M=H+H+M                4.577E+19 -1.40  1.0438E+05
   H2/2.5/ H2O/12/
O+O+M=O2+M                6.165E+15 -0.50  0.000E+00 
   H2/2.5/ H2O/12/
O+H+M=OH+M                4.714E+18 -1.00  0.000E+00
   H2/2.5/ H2O/12/
H+OH+M=H2O+M              2.212E+22 -2.00  0.000E+00
   H2/2.5/ H2O/6.3/
H+O2(+M)=HO2(+M)          1.475E+12  0.60  0.00E+00
  LOW/3.482E+16  -0.411  -1.115E+03/
  TROE/0.5  1E-30  1E30/
     H2/2.5/ H2O/12/ 
HO2+H=H2+O2               1.66E+13   0.00   0.823E+03
HO2+H=OH+OH               7.079E+13   0.00   2.95E+02
HO2+O=O2+OH               0.325E+14  0.00   0.00E+00   
HO2+OH=H2O+O2             2.890E+13  0.00 -4.970E+02
HO2+HO2=H2O2+O2            4.200e+14  0.00  1.1982e+04
  DUPLICATE
HO2+HO2=H2O2+O2            1.300e+11  0.00 -1.6293e+3
  DUPLICATE
H2O2(+M)=OH+OH(+M)         2.951e+14   0.00  4.843E+04
  LOW/1.202E+17  0.00  4.55E+04/
  TROE/0.5 1E-30 1E+30/
  H2/2.5/ H2O/12/          !Based on nitrogen as a collider
H2O2+H=H2O+OH             0.241E+14  0.00  0.397E+04
H2O2+H=HO2+H2             0.482E+14  0.00  0.795E+04  ! Baseline
H2O2+O=OH+HO2 		  9.550E+06  2.00  3.970E+03 
H2O2+OH=HO2+H2O           1.000E+12  0.00  0.000	!Hippler,1992 cv fit
    DUPLICATE 
H2O2+OH=HO2+H2O           5.800E+14  0.00  9.557E+03
    DUPLICATE
END