/*--------------------------------*- C++ -*----------------------------------*\
| =========                 |                                                 |
| \\      /  F ield         | OpenFOAM: The Open Source CFD Toolbox           |
|  \\    /   O peration     | Version:  1.0                                   |
|   \\  /    A nd           | Web:      http://www.openfoam.org               |
|    \\/     M anipulation  |                                                 |
\*---------------------------------------------------------------------------*/

FoamFile
{
    version         2.0;
    format          ascii;

    root            "";
    case            "";
    instance        "";
    local           "";

    class           dictionary;
    object          ThermoPopeCloud;
}

// * * * * * * * * * * * * * * * * * * * * * * * * * * * * * * * * * * * * * //
fileName   "h";
fields 
(
    {
        N 200;	
	    max 1;
	    min 0;
	    name f;
	}
);

output
( 
    {
        name f;
    }
    {
        name h0;
	}
);

values
(
201
(
0
0.00500000000000000
0.0100000000000000
0.0150000000000000
0.0200000000000000
0.0250000000000000
0.0300000000000000
0.0350000000000000
0.0400000000000000
0.0450000000000000
0.0500000000000000
0.0550000000000000
0.0600000000000000
0.0650000000000000
0.0700000000000000
0.0750000000000000
0.0800000000000000
0.0850000000000000
0.0900000000000000
0.0950000000000000
0.100000000000000
0.105000000000000
0.110000000000000
0.115000000000000
0.120000000000000
0.125000000000000
0.130000000000000
0.135000000000000
0.140000000000000
0.145000000000000
0.150000000000000
0.155000000000000
0.160000000000000
0.165000000000000
0.170000000000000
0.175000000000000
0.180000000000000
0.185000000000000
0.190000000000000
0.195000000000000
0.200000000000000
0.205000000000000
0.210000000000000
0.215000000000000
0.220000000000000
0.225000000000000
0.230000000000000
0.235000000000000
0.240000000000000
0.245000000000000
0.250000000000000
0.255000000000000
0.260000000000000
0.265000000000000
0.270000000000000
0.275000000000000
0.280000000000000
0.285000000000000
0.290000000000000
0.295000000000000
0.300000000000000
0.305000000000000
0.310000000000000
0.315000000000000
0.320000000000000
0.325000000000000
0.330000000000000
0.335000000000000
0.340000000000000
0.345000000000000
0.350000000000000
0.355000000000000
0.360000000000000
0.365000000000000
0.370000000000000
0.375000000000000
0.380000000000000
0.385000000000000
0.390000000000000
0.395000000000000
0.400000000000000
0.405000000000000
0.410000000000000
0.415000000000000
0.420000000000000
0.425000000000000
0.430000000000000
0.435000000000000
0.440000000000000
0.445000000000000
0.450000000000000
0.455000000000000
0.460000000000000
0.465000000000000
0.470000000000000
0.475000000000000
0.480000000000000
0.485000000000000
0.490000000000000
0.495000000000000
0.500000000000000
0.505000000000000
0.510000000000000
0.515000000000000
0.520000000000000
0.525000000000000
0.530000000000000
0.535000000000000
0.540000000000000
0.545000000000000
0.550000000000000
0.555000000000000
0.560000000000000
0.565000000000000
0.570000000000000
0.575000000000000
0.580000000000000
0.585000000000000
0.590000000000000
0.595000000000000
0.600000000000000
0.605000000000000
0.610000000000000
0.615000000000000
0.620000000000000
0.625000000000000
0.630000000000000
0.635000000000001
0.640000000000001
0.645000000000001
0.650000000000001
0.655000000000001
0.660000000000001
0.665000000000001
0.670000000000001
0.675000000000001
0.680000000000001
0.685000000000001
0.690000000000001
0.695000000000001
0.700000000000001
0.705000000000001
0.710000000000001
0.715000000000001
0.720000000000001
0.725000000000001
0.730000000000001
0.735000000000001
0.740000000000001
0.745000000000001
0.750000000000001
0.755000000000001
0.760000000000001
0.765000000000001
0.770000000000001
0.775000000000001
0.780000000000001
0.785000000000001
0.790000000000001
0.795000000000001
0.800000000000001
0.805000000000001
0.810000000000001
0.815000000000001
0.820000000000001
0.825000000000001
0.830000000000001
0.835000000000001
0.840000000000001
0.845000000000001
0.850000000000001
0.855000000000001
0.860000000000001
0.865000000000001
0.870000000000001
0.875000000000001
0.880000000000001
0.885000000000001
0.890000000000001
0.895000000000001
0.900000000000001
0.905000000000001
0.910000000000001
0.915000000000001
0.920000000000001
0.925000000000001
0.930000000000001
0.935000000000001
0.940000000000001
0.945000000000001
0.950000000000001
0.955000000000001
0.960000000000001
0.965000000000001
0.970000000000001
0.975000000000001
0.980000000000001
0.985000000000001
0.990000000000001
0.995000000000001
1.00000000000000
)

201
(
298
520.877083333333
730.990000000000
926.455000000000
1109.40000000000
1283.20000000000
1448.16666666667
1605.68000000000
1756.66000000000
1901.38965517241
2040.29473684211
2173.95000000000
2142.96000000000
2112.96891891892
2083.83899371069
2055.67216494845
2028.20404217926
2001.54893617021
1975.71295336788
1950.47640067912
1925.96266094421
1902.09583333333
1878.87037037037
1856.21875000000
1834.08736842105
1812.59379562044
1791.47125748503
1771.01861386139
1750.87500000000
1731.28166666667
1712.09800796813
1693.31204819277
1674.98333333333
1656.97894736842
1639.42698412698
1622.09870129870
1605.22952755906
1588.69137931034
1572.41219512195
1556.41379310345
1540.76949152542
1525.36687697161
1510.36548223350
1495.55373134328
1480.93422053232
1466.66307692308
1452.67694672131
1438.79375000000
1425.21013824885
1411.82085889571
1398.69065420561
1385.78726937269
1373.01051660517
1360.40846325167
1348.12056256062
1335.89941804074
1323.84008097166
1312.04522292994
1300.37971014493
1288.89478098788
1277.57138863001
1266.28888888889
1255.29326923077
1244.41128048780
1233.65918762089
1223.06924564797
1212.59691119691
1202.22465753425
1192.03023952096
1182.00029940120
1172.03046033301
1162.18716944172
1152.39096045198
1142.71581920904
1133.25759162304
1123.90748717949
1114.72800000000
1105.54851282051
1096.36902564103
1087.20000000000
1078.33043478261
1069.53092783505
1060.82355212355
1052.16153846154
1043.69718969555
1035.26627634660
1026.83536299766
1018.46477404403
1010.23765932793
1002.08812056738
993.997104018912
986.127866622428
978.289445919044
970.451025215660
962.612604512276
954.774183808891
946.935763105507
939.460783132530
932.049939759036
924.639096385542
917.228253012048
909.817409638554
902.406566265060
894.995722891566
887.584879518072
880.320141921397
873.174945414847
866.102937685459
859.114807121661
852.126676557863
845.138545994065
838.260187573270
831.567143415396
824.874099257522
818.181055099648
811.488010941774
804.794966783899
798.101922626025
791.408878468151
784.715834310277
778.022790152403
771.367885672407
764.955280322462
758.542674972517
752.130069622572
745.717464272627
739.304858922682
733.059347692307
726.893193846153
720.727039999999
714.560886153846
708.394732307692
702.228578461538
696.062424615384
689.896270769230
683.730116923076
677.563963076922
671.397809230769
665.231655384615
659.065501538461
653.005296610169
646.998900343642
641.003827838827
635.027622950819
629.083864306784
623.139911504424
617.200447761193
611.277047619047
605.377287822878
599.497336103416
593.622451523545
587.747566943674
581.872682363804
576.018457516339
570.193475671749
564.368493827160
558.543511982570
552.718530137981
546.893548293391
541.068566448801
535.243584604211
529.418602759622
523.593620915032
517.768639070442
511.943657225853
506.118675381263
500.293693536673
494.469671916010
488.646181102362
482.822690288713
476.994322709163
471.162649402390
465.318102353380
459.464534927157
453.610967500933
447.757400074710
441.903832648486
436.043066577000
430.158735709481
424.274404841963
418.390073974445
412.505743106926
406.621412239408
400.737081371889
394.852750504371
388.968419636852
383.084088769334
377.199757901815
371.315427034297
365.431096166778
359.546765299260
353.662434431741
347.778103564223
341.893772696704
336.009441829186
330.125110961667
324.240780094149
318.356449226631
312.472118359112
306.587787491594
300.703456624075
)
);
// ************************************************************************* //
