/*--------------------------------*- C++ -*----------------------------------*\
| =========                 |                                                 |
| \\      /  F ield         | OpenFOAM: The Open Source CFD Toolbox           |
|  \\    /   O peration     | Version:  1.0                                   |
|   \\  /    A nd           | Web:      http://www.openfoam.org               |
|    \\/     M anipulation  |                                                 |
\*---------------------------------------------------------------------------*/

FoamFile
{
    version         2.0;
    format          ascii;

    root            "";
    case            "";
    instance        "";
    local           "";

    class           dictionary;
    object          ThermoPopeCloud;
}

// * * * * * * * * * * * * * * * * * * * * * * * * * * * * * * * * * * * * * //
fileName   "CO2";
fields 
(
    {
        N 200;	
	    max 1;
	    min 0;
	    name f;
	}
);

output
( 
    {
        name f;
    }
    {
        name CO20;
	}
);

values
(
201
(
0
0.00500000000000000
0.0100000000000000
0.0150000000000000
0.0200000000000000
0.0250000000000000
0.0300000000000000
0.0350000000000000
0.0400000000000000
0.0450000000000000
0.0500000000000000
0.0550000000000000
0.0600000000000000
0.0650000000000000
0.0700000000000000
0.0750000000000000
0.0800000000000000
0.0850000000000000
0.0900000000000000
0.0950000000000000
0.100000000000000
0.105000000000000
0.110000000000000
0.115000000000000
0.120000000000000
0.125000000000000
0.130000000000000
0.135000000000000
0.140000000000000
0.145000000000000
0.150000000000000
0.155000000000000
0.160000000000000
0.165000000000000
0.170000000000000
0.175000000000000
0.180000000000000
0.185000000000000
0.190000000000000
0.195000000000000
0.200000000000000
0.205000000000000
0.210000000000000
0.215000000000000
0.220000000000000
0.225000000000000
0.230000000000000
0.235000000000000
0.240000000000000
0.245000000000000
0.250000000000000
0.255000000000000
0.260000000000000
0.265000000000000
0.270000000000000
0.275000000000000
0.280000000000000
0.285000000000000
0.290000000000000
0.295000000000000
0.300000000000000
0.305000000000000
0.310000000000000
0.315000000000000
0.320000000000000
0.325000000000000
0.330000000000000
0.335000000000000
0.340000000000000
0.345000000000000
0.350000000000000
0.355000000000000
0.360000000000000
0.365000000000000
0.370000000000000
0.375000000000000
0.380000000000000
0.385000000000000
0.390000000000000
0.395000000000000
0.400000000000000
0.405000000000000
0.410000000000000
0.415000000000000
0.420000000000000
0.425000000000000
0.430000000000000
0.435000000000000
0.440000000000000
0.445000000000000
0.450000000000000
0.455000000000000
0.460000000000000
0.465000000000000
0.470000000000000
0.475000000000000
0.480000000000000
0.485000000000000
0.490000000000000
0.495000000000000
0.500000000000000
0.505000000000000
0.510000000000000
0.515000000000000
0.520000000000000
0.525000000000000
0.530000000000000
0.535000000000000
0.540000000000000
0.545000000000000
0.550000000000000
0.555000000000000
0.560000000000000
0.565000000000000
0.570000000000000
0.575000000000000
0.580000000000000
0.585000000000000
0.590000000000000
0.595000000000000
0.600000000000000
0.605000000000000
0.610000000000000
0.615000000000000
0.620000000000000
0.625000000000000
0.630000000000000
0.635000000000001
0.640000000000001
0.645000000000001
0.650000000000001
0.655000000000001
0.660000000000001
0.665000000000001
0.670000000000001
0.675000000000001
0.680000000000001
0.685000000000001
0.690000000000001
0.695000000000001
0.700000000000001
0.705000000000001
0.710000000000001
0.715000000000001
0.720000000000001
0.725000000000001
0.730000000000001
0.735000000000001
0.740000000000001
0.745000000000001
0.750000000000001
0.755000000000001
0.760000000000001
0.765000000000001
0.770000000000001
0.775000000000001
0.780000000000001
0.785000000000001
0.790000000000001
0.795000000000001
0.800000000000001
0.805000000000001
0.810000000000001
0.815000000000001
0.820000000000001
0.825000000000001
0.830000000000001
0.835000000000001
0.840000000000001
0.845000000000001
0.850000000000001
0.855000000000001
0.860000000000001
0.865000000000001
0.870000000000001
0.875000000000001
0.880000000000001
0.885000000000001
0.890000000000001
0.895000000000001
0.900000000000001
0.905000000000001
0.910000000000001
0.915000000000001
0.920000000000001
0.925000000000001
0.930000000000001
0.935000000000001
0.940000000000001
0.945000000000001
0.950000000000001
0.955000000000001
0.960000000000001
0.965000000000001
0.970000000000001
0.975000000000001
0.980000000000001
0.985000000000001
0.990000000000001
0.995000000000001
1.00000000000000
)

201
(
0
0.0100909090909091
0.0201818181818182
0.0302727272727273
0.0403636363636364
0.0504545454545455
0.0605454545454546
0.0706363636363637
0.0807272727272727
0.0908181818181818
0.100909090909091
0.111000000000000
0.110412698412698
0.109825396825397
0.109238095238095
0.108650793650794
0.108063492063492
0.107476190476190
0.106888888888889
0.106301587301587
0.105714285714286
0.105126984126984
0.104539682539683
0.103952380952381
0.103365079365079
0.102777777777778
0.102190476190476
0.101603174603175
0.101015873015873
0.100428571428571
0.0998412698412698
0.0992539682539683
0.0986666666666667
0.0980793650793651
0.0974920634920635
0.0969047619047619
0.0963174603174603
0.0957301587301587
0.0951428571428571
0.0945555555555556
0.0939682539682540
0.0933809523809524
0.0927936507936508
0.0922063492063492
0.0916190476190476
0.0910317460317460
0.0904444444444444
0.0898571428571428
0.0892698412698413
0.0886825396825397
0.0880952380952381
0.0875079365079365
0.0869206349206349
0.0863333333333333
0.0857460317460317
0.0851587301587301
0.0845714285714286
0.0839841269841270
0.0833968253968254
0.0828095238095238
0.0822222222222222
0.0816349206349206
0.0810476190476190
0.0804603174603174
0.0798730158730159
0.0792857142857143
0.0786984126984127
0.0781111111111111
0.0775238095238095
0.0769365079365079
0.0763492063492063
0.0757619047619047
0.0751746031746031
0.0745873015873016
0.0740000000000000
0.0734126984126984
0.0728253968253968
0.0722380952380952
0.0716507936507936
0.0710634920634920
0.0704761904761904
0.0698888888888889
0.0693015873015873
0.0687142857142857
0.0681269841269841
0.0675396825396825
0.0669523809523809
0.0663650793650793
0.0657777777777777
0.0651904761904762
0.0646031746031746
0.0640158730158730
0.0634285714285714
0.0628412698412698
0.0622539682539682
0.0616666666666666
0.0610793650793650
0.0604920634920635
0.0599047619047619
0.0593174603174603
0.0587301587301587
0.0581428571428571
0.0575555555555555
0.0569682539682539
0.0563809523809523
0.0557936507936508
0.0552063492063492
0.0546190476190476
0.0540317460317460
0.0534444444444444
0.0528571428571428
0.0522698412698412
0.0516825396825396
0.0510952380952381
0.0505079365079365
0.0499206349206349
0.0493333333333333
0.0487460317460317
0.0481587301587301
0.0475714285714285
0.0469841269841269
0.0463968253968254
0.0458095238095238
0.0452222222222222
0.0446349206349206
0.0440476190476190
0.0434603174603174
0.0428730158730158
0.0422857142857142
0.0416984126984126
0.0411111111111111
0.0405238095238095
0.0399365079365079
0.0393492063492063
0.0387619047619047
0.0381746031746031
0.0375873015873015
0.0370000000000000
0.0364126984126984
0.0358253968253968
0.0352380952380952
0.0346507936507936
0.0340634920634920
0.0334761904761904
0.0328888888888888
0.0323015873015873
0.0317142857142857
0.0311269841269841
0.0305396825396825
0.0299523809523809
0.0293650793650793
0.0287777777777777
0.0281904761904761
0.0276031746031745
0.0270158730158730
0.0264285714285714
0.0258412698412698
0.0252539682539682
0.0246666666666666
0.0240793650793650
0.0234920634920634
0.0229047619047618
0.0223174603174602
0.0217301587301587
0.0211428571428571
0.0205555555555555
0.0199682539682539
0.0193809523809523
0.0187936507936507
0.0182063492063491
0.0176190476190475
0.0170317460317460
0.0164444444444444
0.0158571428571428
0.0152698412698412
0.0146825396825396
0.0140952380952380
0.0135079365079364
0.0129206349206348
0.0123333333333333
0.0117460317460317
0.0111587301587301
0.0105714285714285
0.00998412698412690
0.00939682539682531
0.00880952380952373
0.00822222222222213
0.00763492063492055
0.00704761904761896
0.00646031746031738
0.00587301587301578
0.00528571428571420
0.00469841269841262
0.00411111111111102
0.00352380952380944
0.00293650793650785
0.00234920634920627
0.00176190476190467
0.00117460317460309
0.000587301587301498
0
)

);
// ************************************************************************* //
