/*--------------------------------*- C++ -*----------------------------------*\
| =========                 |                                                 |
| \\      /  F ield         | OpenFOAM: The Open Source CFD Toolbox           |
|  \\    /   O peration     | Version:  1.0                                   |
|   \\  /    A nd           | Web:      http://www.openfoam.org               |
|    \\/     M anipulation  |                                                 |
\*---------------------------------------------------------------------------*/

FoamFile
{
    version         2.0;
    format          ascii;

    root            "";
    case            "";
    instance        "";
    local           "";

    class           dictionary;
    object          ThermoPopeCloud;
}

// * * * * * * * * * * * * * * * * * * * * * * * * * * * * * * * * * * * * * //
fileName   "H2";
fields 
(
    {
        N 200;	
	    max 1;
	    min 0;
	    name f;
	}
);

output
( 
    {
        name f;
    }
    {
        name H20;
	}
);

values
(
201
(
0
0.00500000000000000
0.0100000000000000
0.0150000000000000
0.0200000000000000
0.0250000000000000
0.0300000000000000
0.0350000000000000
0.0400000000000000
0.0450000000000000
0.0500000000000000
0.0550000000000000
0.0600000000000000
0.0650000000000000
0.0700000000000000
0.0750000000000000
0.0800000000000000
0.0850000000000000
0.0900000000000000
0.0950000000000000
0.100000000000000
0.105000000000000
0.110000000000000
0.115000000000000
0.120000000000000
0.125000000000000
0.130000000000000
0.135000000000000
0.140000000000000
0.145000000000000
0.150000000000000
0.155000000000000
0.160000000000000
0.165000000000000
0.170000000000000
0.175000000000000
0.180000000000000
0.185000000000000
0.190000000000000
0.195000000000000
0.200000000000000
0.205000000000000
0.210000000000000
0.215000000000000
0.220000000000000
0.225000000000000
0.230000000000000
0.235000000000000
0.240000000000000
0.245000000000000
0.250000000000000
0.255000000000000
0.260000000000000
0.265000000000000
0.270000000000000
0.275000000000000
0.280000000000000
0.285000000000000
0.290000000000000
0.295000000000000
0.300000000000000
0.305000000000000
0.310000000000000
0.315000000000000
0.320000000000000
0.325000000000000
0.330000000000000
0.335000000000000
0.340000000000000
0.345000000000000
0.350000000000000
0.355000000000000
0.360000000000000
0.365000000000000
0.370000000000000
0.375000000000000
0.380000000000000
0.385000000000000
0.390000000000000
0.395000000000000
0.400000000000000
0.405000000000000
0.410000000000000
0.415000000000000
0.420000000000000
0.425000000000000
0.430000000000000
0.435000000000000
0.440000000000000
0.445000000000000
0.450000000000000
0.455000000000000
0.460000000000000
0.465000000000000
0.470000000000000
0.475000000000000
0.480000000000000
0.485000000000000
0.490000000000000
0.495000000000000
0.500000000000000
0.505000000000000
0.510000000000000
0.515000000000000
0.520000000000000
0.525000000000000
0.530000000000000
0.535000000000000
0.540000000000000
0.545000000000000
0.550000000000000
0.555000000000000
0.560000000000000
0.565000000000000
0.570000000000000
0.575000000000000
0.580000000000000
0.585000000000000
0.590000000000000
0.595000000000000
0.600000000000000
0.605000000000000
0.610000000000000
0.615000000000000
0.620000000000000
0.625000000000000
0.630000000000000
0.635000000000001
0.640000000000001
0.645000000000001
0.650000000000001
0.655000000000001
0.660000000000001
0.665000000000001
0.670000000000001
0.675000000000001
0.680000000000001
0.685000000000001
0.690000000000001
0.695000000000001
0.700000000000001
0.705000000000001
0.710000000000001
0.715000000000001
0.720000000000001
0.725000000000001
0.730000000000001
0.735000000000001
0.740000000000001
0.745000000000001
0.750000000000001
0.755000000000001
0.760000000000001
0.765000000000001
0.770000000000001
0.775000000000001
0.780000000000001
0.785000000000001
0.790000000000001
0.795000000000001
0.800000000000001
0.805000000000001
0.810000000000001
0.815000000000001
0.820000000000001
0.825000000000001
0.830000000000001
0.835000000000001
0.840000000000001
0.845000000000001
0.850000000000001
0.855000000000001
0.860000000000001
0.865000000000001
0.870000000000001
0.875000000000001
0.880000000000001
0.885000000000001
0.890000000000001
0.895000000000001
0.900000000000001
0.905000000000001
0.910000000000001
0.915000000000001
0.920000000000001
0.925000000000001
0.930000000000001
0.935000000000001
0.940000000000001
0.945000000000001
0.950000000000001
0.955000000000001
0.960000000000001
0.965000000000001
0.970000000000001
0.975000000000001
0.980000000000001
0.985000000000001
0.990000000000001
0.995000000000001
1.00000000000000
)

201
(
0
0.000126363636363636
0.000252727272727273
0.000379090909090909
0.000505454545454546
0.000631818181818182
0.000758181818181818
0.000884545454545455
0.00101090909090909
0.00113727272727273
0.00126363636363636
0.00139000000000000
0.00138264550264550
0.00137529100529101
0.00136793650793651
0.00136058201058201
0.00135322751322751
0.00134587301587302
0.00133851851851852
0.00133116402116402
0.00132380952380952
0.00131645502645503
0.00130910052910053
0.00130174603174603
0.00129439153439153
0.00128703703703704
0.00127968253968254
0.00127232804232804
0.00126497354497354
0.00125761904761905
0.00125026455026455
0.00124291005291005
0.00123555555555556
0.00122820105820106
0.00122084656084656
0.00121349206349206
0.00120613756613757
0.00119878306878307
0.00119142857142857
0.00118407407407407
0.00117671957671958
0.00116936507936508
0.00116201058201058
0.00115465608465608
0.00114730158730159
0.00113994708994709
0.00113259259259259
0.00112523809523810
0.00111788359788360
0.00111052910052910
0.00110317460317460
0.00109582010582011
0.00108846560846561
0.00108111111111111
0.00107375661375661
0.00106640211640212
0.00105904761904762
0.00105169312169312
0.00104433862433862
0.00103698412698413
0.00102962962962963
0.00102227513227513
0.00101492063492063
0.00100756613756614
0.00100021164021164
0.000992857142857143
0.000985502645502645
0.000978148148148148
0.000970793650793651
0.000963439153439153
0.000956084656084656
0.000948730158730158
0.000941375661375661
0.000934021164021164
0.000926666666666666
0.000919312169312169
0.000911957671957672
0.000904603174603174
0.000897248677248677
0.000889894179894180
0.000882539682539682
0.000875185185185185
0.000867830687830687
0.000860476190476190
0.000853121693121693
0.000845767195767195
0.000838412698412698
0.000831058201058201
0.000823703703703703
0.000816349206349206
0.000808994708994709
0.000801640211640211
0.000794285714285714
0.000786931216931216
0.000779576719576719
0.000772222222222222
0.000764867724867724
0.000757513227513227
0.000750158730158730
0.000742804232804232
0.000735449735449735
0.000728095238095238
0.000720740740740740
0.000713386243386243
0.000706031746031746
0.000698677248677248
0.000691322751322751
0.000683968253968253
0.000676613756613756
0.000669259259259259
0.000661904761904761
0.000654550264550264
0.000647195767195767
0.000639841269841269
0.000632486772486772
0.000625132275132275
0.000617777777777777
0.000610423280423280
0.000603068783068782
0.000595714285714285
0.000588359788359788
0.000581005291005290
0.000573650793650793
0.000566296296296296
0.000558941798941798
0.000551587301587301
0.000544232804232804
0.000536878306878306
0.000529523809523809
0.000522169312169311
0.000514814814814814
0.000507460317460317
0.000500105820105819
0.000492751322751322
0.000485396825396825
0.000478042328042327
0.000470687830687830
0.000463333333333333
0.000455978835978835
0.000448624338624338
0.000441269841269840
0.000433915343915343
0.000426560846560846
0.000419206349206349
0.000411851851851851
0.000404497354497354
0.000397142857142856
0.000389788359788359
0.000382433862433862
0.000375079365079364
0.000367724867724867
0.000360370370370369
0.000353015873015872
0.000345661375661375
0.000338306878306878
0.000330952380952380
0.000323597883597883
0.000316243386243385
0.000308888888888888
0.000301534391534391
0.000294179894179893
0.000286825396825396
0.000279470899470899
0.000272116402116401
0.000264761904761904
0.000257407407407407
0.000250052910052909
0.000242698412698412
0.000235343915343914
0.000227989417989417
0.000220634920634920
0.000213280423280422
0.000205925925925925
0.000198571428571428
0.000191216931216930
0.000183862433862433
0.000176507936507936
0.000169153439153438
0.000161798941798941
0.000154444444444443
0.000147089947089946
0.000139735449735449
0.000132380952380951
0.000125026455026454
0.000117671957671957
0.000110317460317459
0.000102962962962962
9.56084656084646e-05
8.82539682539672e-05
8.08994708994700e-05
7.35449735449725e-05
6.61904761904751e-05
5.88359788359777e-05
5.14814814814803e-05
4.41269841269831e-05
3.67724867724856e-05
2.94179894179884e-05
2.20634920634910e-05
1.47089947089936e-05
7.35449735449613e-06
0
)

);
// ************************************************************************* //
