/*--------------------------------*- C++ -*----------------------------------*\
| =========                 |                                                 |
| \\      /  F ield         | OpenFOAM: The Open Source CFD Toolbox           |
|  \\    /   O peration     | Version:  1.0                                   |
|   \\  /    A nd           | Web:      http://www.openfoam.org               |
|    \\/     M anipulation  |                                                 |
\*---------------------------------------------------------------------------*/

FoamFile
{
    version         2.0;
    format          ascii;

    root            "";
    case            "";
    instance        "";
    local           "";

    class           dictionary;
    object          ThermoPopeCloud;
}

// * * * * * * * * * * * * * * * * * * * * * * * * * * * * * * * * * * * * * //
fileName   "H2O";
fields 
(
    {
        N 200;	
	    max 1;
	    min 0;
	    name f;
	}
);

output
( 
    {
        name f;
    }
    {
        name H2O0;
	}
);

values
(
201
(
0
0.00500000000000000
0.0100000000000000
0.0150000000000000
0.0200000000000000
0.0250000000000000
0.0300000000000000
0.0350000000000000
0.0400000000000000
0.0450000000000000
0.0500000000000000
0.0550000000000000
0.0600000000000000
0.0650000000000000
0.0700000000000000
0.0750000000000000
0.0800000000000000
0.0850000000000000
0.0900000000000000
0.0950000000000000
0.100000000000000
0.105000000000000
0.110000000000000
0.115000000000000
0.120000000000000
0.125000000000000
0.130000000000000
0.135000000000000
0.140000000000000
0.145000000000000
0.150000000000000
0.155000000000000
0.160000000000000
0.165000000000000
0.170000000000000
0.175000000000000
0.180000000000000
0.185000000000000
0.190000000000000
0.195000000000000
0.200000000000000
0.205000000000000
0.210000000000000
0.215000000000000
0.220000000000000
0.225000000000000
0.230000000000000
0.235000000000000
0.240000000000000
0.245000000000000
0.250000000000000
0.255000000000000
0.260000000000000
0.265000000000000
0.270000000000000
0.275000000000000
0.280000000000000
0.285000000000000
0.290000000000000
0.295000000000000
0.300000000000000
0.305000000000000
0.310000000000000
0.315000000000000
0.320000000000000
0.325000000000000
0.330000000000000
0.335000000000000
0.340000000000000
0.345000000000000
0.350000000000000
0.355000000000000
0.360000000000000
0.365000000000000
0.370000000000000
0.375000000000000
0.380000000000000
0.385000000000000
0.390000000000000
0.395000000000000
0.400000000000000
0.405000000000000
0.410000000000000
0.415000000000000
0.420000000000000
0.425000000000000
0.430000000000000
0.435000000000000
0.440000000000000
0.445000000000000
0.450000000000000
0.455000000000000
0.460000000000000
0.465000000000000
0.470000000000000
0.475000000000000
0.480000000000000
0.485000000000000
0.490000000000000
0.495000000000000
0.500000000000000
0.505000000000000
0.510000000000000
0.515000000000000
0.520000000000000
0.525000000000000
0.530000000000000
0.535000000000000
0.540000000000000
0.545000000000000
0.550000000000000
0.555000000000000
0.560000000000000
0.565000000000000
0.570000000000000
0.575000000000000
0.580000000000000
0.585000000000000
0.590000000000000
0.595000000000000
0.600000000000000
0.605000000000000
0.610000000000000
0.615000000000000
0.620000000000000
0.625000000000000
0.630000000000000
0.635000000000001
0.640000000000001
0.645000000000001
0.650000000000001
0.655000000000001
0.660000000000001
0.665000000000001
0.670000000000001
0.675000000000001
0.680000000000001
0.685000000000001
0.690000000000001
0.695000000000001
0.700000000000001
0.705000000000001
0.710000000000001
0.715000000000001
0.720000000000001
0.725000000000001
0.730000000000001
0.735000000000001
0.740000000000001
0.745000000000001
0.750000000000001
0.755000000000001
0.760000000000001
0.765000000000001
0.770000000000001
0.775000000000001
0.780000000000001
0.785000000000001
0.790000000000001
0.795000000000001
0.800000000000001
0.805000000000001
0.810000000000001
0.815000000000001
0.820000000000001
0.825000000000001
0.830000000000001
0.835000000000001
0.840000000000001
0.845000000000001
0.850000000000001
0.855000000000001
0.860000000000001
0.865000000000001
0.870000000000001
0.875000000000001
0.880000000000001
0.885000000000001
0.890000000000001
0.895000000000001
0.900000000000001
0.905000000000001
0.910000000000001
0.915000000000001
0.920000000000001
0.925000000000001
0.930000000000001
0.935000000000001
0.940000000000001
0.945000000000001
0.950000000000001
0.955000000000001
0.960000000000001
0.965000000000001
0.970000000000001
0.975000000000001
0.980000000000001
0.985000000000001
0.990000000000001
0.995000000000001
1.00000000000000
)

201
(
0
0.0112727272727273
0.0225454545454545
0.0338181818181818
0.0450909090909091
0.0563636363636364
0.0676363636363637
0.0789090909090909
0.0901818181818182
0.101454545454545
0.112727272727273
0.124000000000000
0.123343915343915
0.122687830687831
0.122031746031746
0.121375661375661
0.120719576719577
0.120063492063492
0.119407407407407
0.118751322751323
0.118095238095238
0.117439153439153
0.116783068783069
0.116126984126984
0.115470899470899
0.114814814814815
0.114158730158730
0.113502645502646
0.112846560846561
0.112190476190476
0.111534391534392
0.110878306878307
0.110222222222222
0.109566137566138
0.108910052910053
0.108253968253968
0.107597883597884
0.106941798941799
0.106285714285714
0.105629629629630
0.104973544973545
0.104317460317460
0.103661375661376
0.103005291005291
0.102349206349206
0.101693121693122
0.101037037037037
0.100380952380952
0.0997248677248677
0.0990687830687831
0.0984126984126984
0.0977566137566137
0.0971005291005291
0.0964444444444444
0.0957883597883598
0.0951322751322751
0.0944761904761905
0.0938201058201058
0.0931640211640211
0.0925079365079365
0.0918518518518518
0.0911957671957672
0.0905396825396825
0.0898835978835979
0.0892275132275132
0.0885714285714286
0.0879153439153439
0.0872592592592592
0.0866031746031746
0.0859470899470899
0.0852910052910053
0.0846349206349206
0.0839788359788359
0.0833227513227513
0.0826666666666666
0.0820105820105820
0.0813544973544973
0.0806984126984127
0.0800423280423280
0.0793862433862434
0.0787301587301587
0.0780740740740740
0.0774179894179894
0.0767619047619047
0.0761058201058201
0.0754497354497354
0.0747936507936508
0.0741375661375661
0.0734814814814814
0.0728253968253968
0.0721693121693121
0.0715132275132275
0.0708571428571428
0.0702010582010582
0.0695449735449735
0.0688888888888888
0.0682328042328042
0.0675767195767195
0.0669206349206349
0.0662645502645502
0.0656084656084656
0.0649523809523809
0.0642962962962962
0.0636402116402116
0.0629841269841269
0.0623280423280423
0.0616719576719576
0.0610158730158730
0.0603597883597883
0.0597037037037037
0.0590476190476190
0.0583915343915343
0.0577354497354497
0.0570793650793650
0.0564232804232804
0.0557671957671957
0.0551111111111111
0.0544550264550264
0.0537989417989417
0.0531428571428571
0.0524867724867724
0.0518306878306878
0.0511746031746031
0.0505185185185185
0.0498624338624338
0.0492063492063492
0.0485502645502645
0.0478941798941798
0.0472380952380952
0.0465820105820105
0.0459259259259259
0.0452698412698412
0.0446137566137566
0.0439576719576719
0.0433015873015872
0.0426455026455026
0.0419894179894179
0.0413333333333333
0.0406772486772486
0.0400211640211640
0.0393650793650793
0.0387089947089947
0.0380529100529100
0.0373968253968253
0.0367407407407407
0.0360846560846560
0.0354285714285714
0.0347724867724867
0.0341164021164020
0.0334603174603174
0.0328042328042327
0.0321481481481481
0.0314920634920634
0.0308359788359788
0.0301798941798941
0.0295238095238095
0.0288677248677248
0.0282116402116401
0.0275555555555555
0.0268994708994708
0.0262433862433862
0.0255873015873015
0.0249312169312168
0.0242751322751322
0.0236190476190475
0.0229629629629629
0.0223068783068782
0.0216507936507936
0.0209947089947089
0.0203386243386243
0.0196825396825396
0.0190264550264549
0.0183703703703703
0.0177142857142856
0.0170582010582010
0.0164021164021163
0.0157460317460317
0.0150899470899470
0.0144338624338624
0.0137777777777777
0.0131216931216930
0.0124656084656084
0.0118095238095237
0.0111534391534391
0.0104973544973544
0.00984126984126975
0.00918518518518509
0.00852910052910044
0.00787301587301578
0.00721693121693112
0.00656084656084646
0.00590476190476182
0.00524867724867716
0.00459259259259250
0.00393650793650784
0.00328042328042318
0.00262433862433853
0.00196825396825387
0.00131216931216921
0.000656084656084549
0
)

);
// ************************************************************************* //
