/*--------------------------------*- C++ -*----------------------------------*\
| =========                 |                                                 |
| \\      /  F ield         | OpenFOAM: The Open Source CFD Toolbox           |
|  \\    /   O peration     | Version:  1.0                                   |
|   \\  /    A nd           | Web:      http://www.openfoam.org               |
|    \\/     M anipulation  |                                                 |
\*---------------------------------------------------------------------------*/

FoamFile
{
    version         2.0;
    format          ascii;

    root            "";
    case            "";
    instance        "";
    local           "";

    class           dictionary;
    object          ThermoPopeCloud;
}

// * * * * * * * * * * * * * * * * * * * * * * * * * * * * * * * * * * * * * //
fileName   "CO";
fields 
(
    {
        N 200;	
	    max 1;
	    min 0;
	    name f;
	}
);

output
( 
    {
        name f;
    }
    {
        name CO0;
	}
);

values
(
201
(
0
0.00500000000000000
0.0100000000000000
0.0150000000000000
0.0200000000000000
0.0250000000000000
0.0300000000000000
0.0350000000000000
0.0400000000000000
0.0450000000000000
0.0500000000000000
0.0550000000000000
0.0600000000000000
0.0650000000000000
0.0700000000000000
0.0750000000000000
0.0800000000000000
0.0850000000000000
0.0900000000000000
0.0950000000000000
0.100000000000000
0.105000000000000
0.110000000000000
0.115000000000000
0.120000000000000
0.125000000000000
0.130000000000000
0.135000000000000
0.140000000000000
0.145000000000000
0.150000000000000
0.155000000000000
0.160000000000000
0.165000000000000
0.170000000000000
0.175000000000000
0.180000000000000
0.185000000000000
0.190000000000000
0.195000000000000
0.200000000000000
0.205000000000000
0.210000000000000
0.215000000000000
0.220000000000000
0.225000000000000
0.230000000000000
0.235000000000000
0.240000000000000
0.245000000000000
0.250000000000000
0.255000000000000
0.260000000000000
0.265000000000000
0.270000000000000
0.275000000000000
0.280000000000000
0.285000000000000
0.290000000000000
0.295000000000000
0.300000000000000
0.305000000000000
0.310000000000000
0.315000000000000
0.320000000000000
0.325000000000000
0.330000000000000
0.335000000000000
0.340000000000000
0.345000000000000
0.350000000000000
0.355000000000000
0.360000000000000
0.365000000000000
0.370000000000000
0.375000000000000
0.380000000000000
0.385000000000000
0.390000000000000
0.395000000000000
0.400000000000000
0.405000000000000
0.410000000000000
0.415000000000000
0.420000000000000
0.425000000000000
0.430000000000000
0.435000000000000
0.440000000000000
0.445000000000000
0.450000000000000
0.455000000000000
0.460000000000000
0.465000000000000
0.470000000000000
0.475000000000000
0.480000000000000
0.485000000000000
0.490000000000000
0.495000000000000
0.500000000000000
0.505000000000000
0.510000000000000
0.515000000000000
0.520000000000000
0.525000000000000
0.530000000000000
0.535000000000000
0.540000000000000
0.545000000000000
0.550000000000000
0.555000000000000
0.560000000000000
0.565000000000000
0.570000000000000
0.575000000000000
0.580000000000000
0.585000000000000
0.590000000000000
0.595000000000000
0.600000000000000
0.605000000000000
0.610000000000000
0.615000000000000
0.620000000000000
0.625000000000000
0.630000000000000
0.635000000000001
0.640000000000001
0.645000000000001
0.650000000000001
0.655000000000001
0.660000000000001
0.665000000000001
0.670000000000001
0.675000000000001
0.680000000000001
0.685000000000001
0.690000000000001
0.695000000000001
0.700000000000001
0.705000000000001
0.710000000000001
0.715000000000001
0.720000000000001
0.725000000000001
0.730000000000001
0.735000000000001
0.740000000000001
0.745000000000001
0.750000000000001
0.755000000000001
0.760000000000001
0.765000000000001
0.770000000000001
0.775000000000001
0.780000000000001
0.785000000000001
0.790000000000001
0.795000000000001
0.800000000000001
0.805000000000001
0.810000000000001
0.815000000000001
0.820000000000001
0.825000000000001
0.830000000000001
0.835000000000001
0.840000000000001
0.845000000000001
0.850000000000001
0.855000000000001
0.860000000000001
0.865000000000001
0.870000000000001
0.875000000000001
0.880000000000001
0.885000000000001
0.890000000000001
0.895000000000001
0.900000000000001
0.905000000000001
0.910000000000001
0.915000000000001
0.920000000000001
0.925000000000001
0.930000000000001
0.935000000000001
0.940000000000001
0.945000000000001
0.950000000000001
0.955000000000001
0.960000000000001
0.965000000000001
0.970000000000001
0.975000000000001
0.980000000000001
0.985000000000001
0.990000000000001
0.995000000000001
1.00000000000000
)

201
(
0
0.00340000000000000
0.00680000000000000
0.0102000000000000
0.0136000000000000
0.0170000000000000
0.0204000000000000
0.0238000000000000
0.0272000000000000
0.0306000000000000
0.0340000000000000
0.0374000000000000
0.0372021164021164
0.0370042328042328
0.0368063492063492
0.0366084656084656
0.0364105820105820
0.0362126984126984
0.0360148148148148
0.0358169312169312
0.0356190476190476
0.0354211640211640
0.0352232804232804
0.0350253968253968
0.0348275132275132
0.0346296296296296
0.0344317460317460
0.0342338624338624
0.0340359788359788
0.0338380952380952
0.0336402116402116
0.0334423280423280
0.0332444444444444
0.0330465608465608
0.0328486772486772
0.0326507936507937
0.0324529100529101
0.0322550264550265
0.0320571428571429
0.0318592592592593
0.0316613756613757
0.0314634920634921
0.0312656084656085
0.0310677248677249
0.0308698412698413
0.0306719576719577
0.0304740740740741
0.0302761904761905
0.0300783068783069
0.0298804232804233
0.0296825396825397
0.0294846560846561
0.0292867724867725
0.0290888888888889
0.0288910052910053
0.0286931216931217
0.0284952380952381
0.0282973544973545
0.0280994708994709
0.0279015873015873
0.0277037037037037
0.0275058201058201
0.0273079365079365
0.0271100529100529
0.0269121693121693
0.0267142857142857
0.0265164021164021
0.0263185185185185
0.0261206349206349
0.0259227513227513
0.0257248677248677
0.0255269841269841
0.0253291005291005
0.0251312169312169
0.0249333333333333
0.0247354497354497
0.0245375661375661
0.0243396825396825
0.0241417989417989
0.0239439153439153
0.0237460317460317
0.0235481481481481
0.0233502645502645
0.0231523809523809
0.0229544973544973
0.0227566137566137
0.0225587301587301
0.0223608465608466
0.0221629629629630
0.0219650793650794
0.0217671957671958
0.0215693121693122
0.0213714285714286
0.0211735449735450
0.0209756613756614
0.0207777777777778
0.0205798941798942
0.0203820105820106
0.0201841269841270
0.0199862433862434
0.0197883597883598
0.0195904761904762
0.0193925925925926
0.0191947089947090
0.0189968253968254
0.0187989417989418
0.0186010582010582
0.0184031746031746
0.0182052910052910
0.0180074074074074
0.0178095238095238
0.0176116402116402
0.0174137566137566
0.0172158730158730
0.0170179894179894
0.0168201058201058
0.0166222222222222
0.0164243386243386
0.0162264550264550
0.0160285714285714
0.0158306878306878
0.0156328042328042
0.0154349206349206
0.0152370370370370
0.0150391534391534
0.0148412698412698
0.0146433862433862
0.0144455026455026
0.0142476190476190
0.0140497354497354
0.0138518518518518
0.0136539682539682
0.0134560846560846
0.0132582010582010
0.0130603174603174
0.0128624338624338
0.0126645502645503
0.0124666666666666
0.0122687830687831
0.0120708994708995
0.0118730158730159
0.0116751322751323
0.0114772486772487
0.0112793650793651
0.0110814814814815
0.0108835978835979
0.0106857142857143
0.0104878306878307
0.0102899470899471
0.0100920634920635
0.00989417989417987
0.00969629629629627
0.00949841269841268
0.00930052910052908
0.00910264550264548
0.00890476190476188
0.00870687830687829
0.00850899470899469
0.00831111111111109
0.00811322751322749
0.00791534391534389
0.00771746031746029
0.00751957671957669
0.00732169312169310
0.00712380952380950
0.00692592592592591
0.00672804232804230
0.00653015873015871
0.00633227513227511
0.00613439153439151
0.00593650793650791
0.00573862433862431
0.00554074074074071
0.00534285714285711
0.00514497354497352
0.00494708994708992
0.00474920634920632
0.00455132275132272
0.00435343915343913
0.00415555555555553
0.00395767195767193
0.00375978835978833
0.00356190476190473
0.00336402116402114
0.00316613756613754
0.00296825396825394
0.00277037037037034
0.00257248677248675
0.00237460317460315
0.00217671957671955
0.00197883597883595
0.00178095238095236
0.00158306878306876
0.00138518518518516
0.00118730158730156
0.000989417989417957
0.000791534391534364
0.000593650793650764
0.000395767195767165
0.000197883597883565
0
)
);
// ************************************************************************* //
