/*--------------------------------*- C++ -*----------------------------------*\
| =========                 |                                                 |
| \\      /  F ield         | OpenFOAM: The Open Source CFD Toolbox           |
|  \\    /   O peration     | Version:  1.0                                   |
|   \\  /    A nd           | Web:      http://www.openfoam.org               |
|    \\/     M anipulation  |                                                 |
\*---------------------------------------------------------------------------*/

FoamFile
{
    version         2.0;
    format          ascii;

    root            "";
    case            "";
    instance        "";
    local           "";

    class           dictionary;
    object          ThermoPopeCloud;
}

// * * * * * * * * * * * * * * * * * * * * * * * * * * * * * * * * * * * * * //
fileName   "N2";
fields 
(
    {
        N 200;	
	    max 1;
	    min 0;
	    name f;
	}
);

output
( 
    {
        name f;
    }
    {
        name N20;
	}
);

values
(
201
(
0
0.00500000000000000
0.0100000000000000
0.0150000000000000
0.0200000000000000
0.0250000000000000
0.0300000000000000
0.0350000000000000
0.0400000000000000
0.0450000000000000
0.0500000000000000
0.0550000000000000
0.0600000000000000
0.0650000000000000
0.0700000000000000
0.0750000000000000
0.0800000000000000
0.0850000000000000
0.0900000000000000
0.0950000000000000
0.100000000000000
0.105000000000000
0.110000000000000
0.115000000000000
0.120000000000000
0.125000000000000
0.130000000000000
0.135000000000000
0.140000000000000
0.145000000000000
0.150000000000000
0.155000000000000
0.160000000000000
0.165000000000000
0.170000000000000
0.175000000000000
0.180000000000000
0.185000000000000
0.190000000000000
0.195000000000000
0.200000000000000
0.205000000000000
0.210000000000000
0.215000000000000
0.220000000000000
0.225000000000000
0.230000000000000
0.235000000000000
0.240000000000000
0.245000000000000
0.250000000000000
0.255000000000000
0.260000000000000
0.265000000000000
0.270000000000000
0.275000000000000
0.280000000000000
0.285000000000000
0.290000000000000
0.295000000000000
0.300000000000000
0.305000000000000
0.310000000000000
0.315000000000000
0.320000000000000
0.325000000000000
0.330000000000000
0.335000000000000
0.340000000000000
0.345000000000000
0.350000000000000
0.355000000000000
0.360000000000000
0.365000000000000
0.370000000000000
0.375000000000000
0.380000000000000
0.385000000000000
0.390000000000000
0.395000000000000
0.400000000000000
0.405000000000000
0.410000000000000
0.415000000000000
0.420000000000000
0.425000000000000
0.430000000000000
0.435000000000000
0.440000000000000
0.445000000000000
0.450000000000000
0.455000000000000
0.460000000000000
0.465000000000000
0.470000000000000
0.475000000000000
0.480000000000000
0.485000000000000
0.490000000000000
0.495000000000000
0.500000000000000
0.505000000000000
0.510000000000000
0.515000000000000
0.520000000000000
0.525000000000000
0.530000000000000
0.535000000000000
0.540000000000000
0.545000000000000
0.550000000000000
0.555000000000000
0.560000000000000
0.565000000000000
0.570000000000000
0.575000000000000
0.580000000000000
0.585000000000000
0.590000000000000
0.595000000000000
0.600000000000000
0.605000000000000
0.610000000000000
0.615000000000000
0.620000000000000
0.625000000000000
0.630000000000000
0.635000000000001
0.640000000000001
0.645000000000001
0.650000000000001
0.655000000000001
0.660000000000001
0.665000000000001
0.670000000000001
0.675000000000001
0.680000000000001
0.685000000000001
0.690000000000001
0.695000000000001
0.700000000000001
0.705000000000001
0.710000000000001
0.715000000000001
0.720000000000001
0.725000000000001
0.730000000000001
0.735000000000001
0.740000000000001
0.745000000000001
0.750000000000001
0.755000000000001
0.760000000000001
0.765000000000001
0.770000000000001
0.775000000000001
0.780000000000001
0.785000000000001
0.790000000000001
0.795000000000001
0.800000000000001
0.805000000000001
0.810000000000001
0.815000000000001
0.820000000000001
0.825000000000001
0.830000000000001
0.835000000000001
0.840000000000001
0.845000000000001
0.850000000000001
0.855000000000001
0.860000000000001
0.865000000000001
0.870000000000001
0.875000000000001
0.880000000000001
0.885000000000001
0.890000000000001
0.895000000000001
0.900000000000001
0.905000000000001
0.910000000000001
0.915000000000001
0.920000000000001
0.925000000000001
0.930000000000001
0.935000000000001
0.940000000000001
0.945000000000001
0.950000000000001
0.955000000000001
0.960000000000001
0.965000000000001
0.970000000000001
0.975000000000001
0.980000000000001
0.985000000000001
0.990000000000001
0.995000000000001
1.00000000000000
)

201
(
0.767000000000000
0.763291818181818
0.759583636363636
0.755875454545455
0.752167272727273
0.748459090909091
0.744750909090909
0.741042727272727
0.737334545454546
0.733626363636364
0.729918181818182
0.726210000000000
0.722367619047619
0.718525238095238
0.714682857142857
0.710840476190476
0.706998095238095
0.703155714285714
0.699313333333333
0.695470952380952
0.691628571428572
0.687786190476191
0.683943809523810
0.680101428571429
0.676259047619048
0.672416666666667
0.668574285714286
0.664731904761905
0.660889523809524
0.657047142857143
0.653204761904762
0.649362380952381
0.645520000000000
0.641677619047619
0.637835238095238
0.633992857142857
0.630150476190476
0.626308095238095
0.622465714285714
0.618623333333333
0.614780952380952
0.610938571428571
0.607096190476190
0.603253809523809
0.599411428571429
0.595569047619048
0.591726666666667
0.587884285714286
0.584041904761905
0.580199523809524
0.576357142857143
0.572514761904762
0.568672380952381
0.564830000000000
0.560987619047619
0.557145238095238
0.553302857142857
0.549460476190476
0.545618095238095
0.541775714285714
0.537933333333333
0.534090952380952
0.530248571428571
0.526406190476190
0.522563809523809
0.518721428571428
0.514879047619048
0.511036666666667
0.507194285714286
0.503351904761905
0.499509523809524
0.495667142857143
0.491824761904762
0.487982380952381
0.484140000000000
0.480297619047619
0.476455238095238
0.472612857142857
0.468770476190476
0.464928095238095
0.461085714285714
0.457243333333333
0.453400952380952
0.449558571428571
0.445716190476190
0.441873809523809
0.438031428571428
0.434189047619047
0.430346666666666
0.426504285714286
0.422661904761904
0.418819523809524
0.414977142857143
0.411134761904762
0.407292380952381
0.403450000000000
0.399607619047619
0.395765238095238
0.391922857142857
0.388080476190476
0.384238095238095
0.380395714285714
0.376553333333333
0.372710952380952
0.368868571428571
0.365026190476190
0.361183809523809
0.357341428571428
0.353499047619047
0.349656666666666
0.345814285714285
0.341971904761904
0.338129523809524
0.334287142857142
0.330444761904762
0.326602380952381
0.322760000000000
0.318917619047619
0.315075238095238
0.311232857142857
0.307390476190476
0.303548095238095
0.299705714285714
0.295863333333333
0.292020952380952
0.288178571428571
0.284336190476190
0.280493809523809
0.276651428571428
0.272809047619047
0.268966666666666
0.265124285714285
0.261281904761904
0.257439523809524
0.253597142857143
0.249754761904762
0.245912380952381
0.242070000000000
0.238227619047619
0.234385238095238
0.230542857142857
0.226700476190476
0.222858095238095
0.219015714285714
0.215173333333333
0.211330952380952
0.207488571428571
0.203646190476190
0.199803809523809
0.195961428571428
0.192119047619047
0.188276666666666
0.184434285714285
0.180591904761904
0.176749523809523
0.172907142857142
0.169064761904761
0.165222380952381
0.161380000000000
0.157537619047619
0.153695238095238
0.149852857142857
0.146010476190476
0.142168095238095
0.138325714285714
0.134483333333333
0.130640952380952
0.126798571428571
0.122956190476190
0.119113809523809
0.115271428571428
0.111429047619047
0.107586666666666
0.103744285714285
0.0999019047619042
0.0960595238095232
0.0922171428571424
0.0883747619047612
0.0845323809523805
0.0806899999999995
0.0768476190476186
0.0730052380952376
0.0691628571428565
0.0653204761904758
0.0614780952380947
0.0576357142857138
0.0537933333333328
0.0499509523809519
0.0461085714285708
0.0422661904761900
0.0384238095238090
0.0345814285714280
0.0307390476190470
0.0268966666666660
0.0230542857142851
0.0192119047619042
0.0153695238095233
0.0115271428571423
0.00768476190476131
0.00384238095238043
0
)
);
// ************************************************************************* //
