/*--------------------------------*- C++ -*----------------------------------*\
| =========                 |                                                 |
| \\      /  F ield         | OpenFOAM: The Open Source CFD Toolbox           |
|  \\    /   O peration     | Version:  1.0                                   |
|   \\  /    A nd           | Web:      http://www.openfoam.org               |
|    \\/     M anipulation  |                                                 |
\*---------------------------------------------------------------------------*/

FoamFile
{
    version         2.0;
    format          ascii;

    root            "";
    case            "";
    instance        "";
    local           "";

    class           dictionary;
    object          ThermoPopeCloud;
}

// * * * * * * * * * * * * * * * * * * * * * * * * * * * * * * * * * * * * * //
fileName   "CH4";
fields 
(
    {
        N 200;	
	    max 1;
	    min 0;
	    name f;
	}
);

output
( 
    {
        name f;
    }
    {
        name CH40;
	}
);

values
(
201
(
0
0.00500000000000000
0.0100000000000000
0.0150000000000000
0.0200000000000000
0.0250000000000000
0.0300000000000000
0.0350000000000000
0.0400000000000000
0.0450000000000000
0.0500000000000000
0.0550000000000000
0.0600000000000000
0.0650000000000000
0.0700000000000000
0.0750000000000000
0.0800000000000000
0.0850000000000000
0.0900000000000000
0.0950000000000000
0.100000000000000
0.105000000000000
0.110000000000000
0.115000000000000
0.120000000000000
0.125000000000000
0.130000000000000
0.135000000000000
0.140000000000000
0.145000000000000
0.150000000000000
0.155000000000000
0.160000000000000
0.165000000000000
0.170000000000000
0.175000000000000
0.180000000000000
0.185000000000000
0.190000000000000
0.195000000000000
0.200000000000000
0.205000000000000
0.210000000000000
0.215000000000000
0.220000000000000
0.225000000000000
0.230000000000000
0.235000000000000
0.240000000000000
0.245000000000000
0.250000000000000
0.255000000000000
0.260000000000000
0.265000000000000
0.270000000000000
0.275000000000000
0.280000000000000
0.285000000000000
0.290000000000000
0.295000000000000
0.300000000000000
0.305000000000000
0.310000000000000
0.315000000000000
0.320000000000000
0.325000000000000
0.330000000000000
0.335000000000000
0.340000000000000
0.345000000000000
0.350000000000000
0.355000000000000
0.360000000000000
0.365000000000000
0.370000000000000
0.375000000000000
0.380000000000000
0.385000000000000
0.390000000000000
0.395000000000000
0.400000000000000
0.405000000000000
0.410000000000000
0.415000000000000
0.420000000000000
0.425000000000000
0.430000000000000
0.435000000000000
0.440000000000000
0.445000000000000
0.450000000000000
0.455000000000000
0.460000000000000
0.465000000000000
0.470000000000000
0.475000000000000
0.480000000000000
0.485000000000000
0.490000000000000
0.495000000000000
0.500000000000000
0.505000000000000
0.510000000000000
0.515000000000000
0.520000000000000
0.525000000000000
0.530000000000000
0.535000000000000
0.540000000000000
0.545000000000000
0.550000000000000
0.555000000000000
0.560000000000000
0.565000000000000
0.570000000000000
0.575000000000000
0.580000000000000
0.585000000000000
0.590000000000000
0.595000000000000
0.600000000000000
0.605000000000000
0.610000000000000
0.615000000000000
0.620000000000000
0.625000000000000
0.630000000000000
0.635000000000001
0.640000000000001
0.645000000000001
0.650000000000001
0.655000000000001
0.660000000000001
0.665000000000001
0.670000000000001
0.675000000000001
0.680000000000001
0.685000000000001
0.690000000000001
0.695000000000001
0.700000000000001
0.705000000000001
0.710000000000001
0.715000000000001
0.720000000000001
0.725000000000001
0.730000000000001
0.735000000000001
0.740000000000001
0.745000000000001
0.750000000000001
0.755000000000001
0.760000000000001
0.765000000000001
0.770000000000001
0.775000000000001
0.780000000000001
0.785000000000001
0.790000000000001
0.795000000000001
0.800000000000001
0.805000000000001
0.810000000000001
0.815000000000001
0.820000000000001
0.825000000000001
0.830000000000001
0.835000000000001
0.840000000000001
0.845000000000001
0.850000000000001
0.855000000000001
0.860000000000001
0.865000000000001
0.870000000000001
0.875000000000001
0.880000000000001
0.885000000000001
0.890000000000001
0.895000000000001
0.900000000000001
0.905000000000001
0.910000000000001
0.915000000000001
0.920000000000001
0.925000000000001
0.930000000000001
0.935000000000001
0.940000000000001
0.945000000000001
0.950000000000001
0.955000000000001
0.960000000000001
0.965000000000001
0.970000000000001
0.975000000000001
0.980000000000001
0.985000000000001
0.990000000000001
0.995000000000001
1.00000000000000
)

201
(
0
0
0
0
0
0
0
0
0
0
0
0
0.00529100529100528
0.0105820105820106
0.0158730158730159
0.0211640211640212
0.0264550264550265
0.0317460317460318
0.0370370370370371
0.0423280423280423
0.0476190476190476
0.0529100529100529
0.0582010582010582
0.0634920634920635
0.0687830687830688
0.0740740740740741
0.0793650793650794
0.0846560846560847
0.0899470899470900
0.0952380952380953
0.100529100529101
0.105820105820106
0.111111111111111
0.116402116402116
0.121693121693122
0.126984126984127
0.132275132275132
0.137566137566138
0.142857142857143
0.148148148148148
0.153439153439154
0.158730158730159
0.164021164021164
0.169312169312169
0.174603174603175
0.179894179894180
0.185185185185185
0.190476190476191
0.195767195767196
0.201058201058201
0.206349206349206
0.211640211640212
0.216931216931217
0.222222222222222
0.227513227513228
0.232804232804233
0.238095238095238
0.243386243386244
0.248677248677249
0.253968253968254
0.259259259259259
0.264550264550265
0.269841269841270
0.275132275132275
0.280423280423281
0.285714285714286
0.291005291005291
0.296296296296297
0.301587301587302
0.306878306878307
0.312169312169312
0.317460317460318
0.322751322751323
0.328042328042328
0.333333333333334
0.338624338624339
0.343915343915344
0.349206349206349
0.354497354497355
0.359788359788360
0.365079365079365
0.370370370370371
0.375661375661376
0.380952380952381
0.386243386243387
0.391534391534392
0.396825396825397
0.402116402116402
0.407407407407408
0.412698412698413
0.417989417989418
0.423280423280424
0.428571428571429
0.433862433862434
0.439153439153440
0.444444444444445
0.449735449735450
0.455026455026455
0.460317460317461
0.465608465608466
0.470899470899471
0.476190476190477
0.481481481481482
0.486772486772487
0.492063492063493
0.497354497354498
0.502645502645503
0.507936507936508
0.513227513227514
0.518518518518519
0.523809523809524
0.529100529100530
0.534391534391535
0.539682539682540
0.544973544973545
0.550264550264551
0.555555555555556
0.560846560846561
0.566137566137567
0.571428571428572
0.576719576719577
0.582010582010582
0.587301587301588
0.592592592592593
0.597883597883598
0.603174603174604
0.608465608465609
0.613756613756614
0.619047619047620
0.624338624338625
0.629629629629630
0.634920634920635
0.640211640211641
0.645502645502646
0.650793650793651
0.656084656084657
0.661375661375662
0.666666666666667
0.671957671957672
0.677248677248678
0.682539682539683
0.687830687830688
0.693121693121694
0.698412698412699
0.703703703703704
0.708994708994710
0.714285714285715
0.719576719576720
0.724867724867725
0.730158730158731
0.735449735449736
0.740740740740741
0.746031746031747
0.751322751322752
0.756613756613757
0.761904761904763
0.767195767195768
0.772486772486773
0.777777777777778
0.783068783068784
0.788359788359789
0.793650793650794
0.798941798941800
0.804232804232805
0.809523809523810
0.814814814814815
0.820105820105821
0.825396825396826
0.830687830687831
0.835978835978837
0.841269841269842
0.846560846560847
0.851851851851853
0.857142857142858
0.862433862433863
0.867724867724869
0.873015873015874
0.878306878306879
0.883597883597884
0.888888888888890
0.894179894179895
0.899470899470900
0.904761904761906
0.910052910052911
0.915343915343916
0.920634920634921
0.925925925925927
0.931216931216932
0.936507936507937
0.941798941798943
0.947089947089948
0.952380952380953
0.957671957671959
0.962962962962964
0.968253968253969
0.973544973544974
0.978835978835980
0.984126984126985
0.989417989417990
0.994708994708996
1.00000000000000
)
);
// ************************************************************************* //
