/*--------------------------------*- C++ -*----------------------------------*\
| =========                 |                                                 |
| \\      /  F ield         | OpenFOAM: The Open Source CFD Toolbox           |
|  \\    /   O peration     | Version:  1.0                                   |
|   \\  /    A nd           | Web:      http://www.openfoam.org               |
|    \\/     M anipulation  |                                                 |
\*---------------------------------------------------------------------------*/

FoamFile
{
    version         2.0;
    format          ascii;

    root            "";
    case            "";
    instance        "";
    local           "";

    class           dictionary;
    object          ThermoPopeCloud;
}

// * * * * * * * * * * * * * * * * * * * * * * * * * * * * * * * * * * * * * //
fileName   "CO2";
fields 
(
    {
        N 20;	
	    max 1;
	    min 0;
	    name f;
	}
);

output
( 
    {
        name f;
    }
    {
        name CO20;
	}
    {
        name CO21;
    }
    {
        name CO22;
    }
    {
        name CO23;
    }
    {
        name CO24;
    }
    {
        name CO25;
    }
);

values
(
21
(
0
0.05
0.1
0.15
0.2
0.25
0.3
0.35
0.4
0.45
0.5
0.55
0.6
0.65
0.7
0.75
0.8
0.85
0.9
0.95
1
)

21
(
0
0.0204285714
0.0408571429
0.0612857143
0.0817142857
0.1021428571
0.1225714286
0.143
0.132
0.121
0.11
0.099
0.088
0.077
0.066
0.055
0.044
0.033
0.022
0.011
0
)

21
(
0
0.0163428571
0.0326857143
0.0490285714
0.0653714286
0.0817142857
0.0980571429
0.1144
0.1056
0.0968
0.088
0.0792
0.0704
0.0616
0.0528
0.044
0.0352
0.0264
0.0176
0.0088
0
)

21
(
0
0.0122571429
0.0245142857
0.0367714286
0.0490285714
0.0612857143
0.0735428571
0.0858
0.0792
0.0726
0.066
0.0594
0.0528
0.0462
0.0396
0.033
0.0264
0.0198
0.0132
0.0066
0
)

21
(
0
0.0081714286
0.0163428571
0.0245142857
0.0326857143
0.0408571429
0.0490285714
0.0572
0.0528
0.0484
0.044
0.0396
0.0352
0.0308
0.0264
0.022
0.0176
0.0132
0.0088
0.0044
0
)

21
(
0
0.0040857143
0.0081714286
0.0122571429
0.0163428571
0.0204285714
0.0245142857
0.0286
0.0264
0.0242
0.022
0.0198
0.0176
0.0154
0.0132
0.011
0.0088
0.0066
0.0044
0.0022
0
)

21
(
0
0
0
0
0
0
0
0
0
0
0
0
0
0
0
0
0
0
0
0
0
)

);
// ************************************************************************* //
