ELEMENTS
C H O N
END
SPECIES
H2 O2 CO N2 
END
