/*--------------------------------*- C++ -*----------------------------------*\
| =========                 |                                                 |
| \\      /  F ield         | OpenFO         |
|  \\    /   O peration     | Version:  2.1.0                                 |
|   \\  /    A nd           | Web:      www.OpenFOAM.org                      |
|    \\/     M anipulation  |                                                 |
\*---------------------------------------------------------------------------*/
FoamFile
{
    version     2.0;
    format      ascii;
    class       dictionary;
    location    "system";
    object      fvSolution;
}
// * * * * * * * * * * * * * * * * * * * * * * * * * * * * * * * * * * * * * //

solvers
{
    "(p|rho)"
    {
        solver          PCG;
        preconditioner  DIC;
        tolerance       1e-6;
        relTol          0.01;
    }

    "(p|rho)Final"
    {
        $p;
        tolerance       1e-06;
        relTol          0;
    }

    "(U|h|k|nuTilda|f|Xii|hEqvE|Yi)"
    {
        solver          PBiCG;
        preconditioner  DILU;
        tolerance       1e-6;
        relTol          0.01;
    }

    "(U|h|k|nuTilda|f|Xii|hEqvE|Yi)Final"
    {
        solver          PBiCG;
        preconditioner  DILU;
        tolerance       1e-08;
        relTol          0;
    }
}

PIMPLE
{
    momentumPredictor yes;
    nOuterCorrectors 2;
    nCorrectors     1;
    nNonOrthogonalCorrectors 0;
}

relaxationFactors
{
    fields
    {
    }
    equations
    {
        "(U|h|k|epsilon|omega|f|Xii|hEqvE|Yi).*"  1;
    }
}

PDFMETHOD
{
  pdfMethodOn       yes;
  nSet              1;
  pdfScatPlotOn     no;
  pdfScatPlotSize   5000;  // No of scatter data on each processor
}
// ************************************************************************* //
