/*---------------------------------------------------------------------------*\
| =========                 |                                                 |
| \\      /  F ield         | OpenFOAM: The Open Source CFD Toolbox           |
|  \\    /   O peration     | Version:  1.4                                   |
|   \\  /    A nd           | Web:      http://www.openfoam.org               |
|    \\/     M anipulation  |                                                 |
\*---------------------------------------------------------------------------*/

FoamFile
{
    version         2.0;
    format          ascii;
    class           dictionary;
    location        "constant";
    object          RASProperties;
}

// * * * * * * * * * * * * * * * * * * * * * * * * * * * * * * * * * * * * * //

RASModel kEpsilon;

turbulence      on;

printCoeffs         on;

laminarCoeffs
{
    Cmu             0.09;
    limiterEpsilon       on;
    Lsgs            1e-4;
}

kEpsilonCoeffs
{
    Cmu             0.09;
    C1              1.44; // default
//    C1              1.6; 
    C2              1.92; //default
    C3              -0.33;
    alphah          1;
    alphak          1;
    alphaEps        0.76923;
    limiterEpsilon       off;
    Lsgs            1.96e-4;
    Prt             1.0; //default: Turbulent Prandtl number
}

RNGkEpsilonCoeffs
{
    Cmu             0.0845;
    C1              1.42;
    C2              1.68;
    C3              -0.33;
    alphah          1;
    alphak          1.39;
    alphaEps        1.39;
    eta0            4.38;
    beta            0.012;
    limiterEpsilon       off;
    Lsgs            1.96e-4;
}

realizableKECoeffs
{
    Cmu              0.09;
    A0              4.04;
    C2              1.92;
    alphah           1;
    alphak           1.0;
    alphaEps        0.76923;
    limiterEpsilon       off;
    Lsgs            1.96e-4;
}

LaunderSharmaKECoeffs
{
    Cmu             Cmu [0 0 0 0 0 0 0] 0.09;
    C1              C1 [0 0 0 0 0 0 0] 1.44;
    C2              C2 [0 0 0 0 0 0 0] 1.92;
    C3              C3 [0 0 0 0 0 0 0] -0.33;
    alphah          alphah [0 0 0 0 0 0 0] 1;
    alphak          alphak [0 0 0 0 0 0 0] 1;
    alphaEps        alphaEps [0 0 0 0 0 0 0] 0.76923;
}

LRRCoeffs
{
    Cmu             Cmu [0 0 0 0 0 0 0] 0.09;
    Clrr1           Clrr1 [0 0 0 0 0 0 0] 1.8;
    Clrr2           Clrr2 [0 0 0 0 0 0 0] 0.6;
    C1              C1 [0 0 0 0 0 0 0] 1.44;
    C2              C2 [0 0 0 0 0 0 0] 1.92;
    C3              C3 [0 0 0 0 0 0 0] -0.33;
    alphah          alphah [0 0 0 0 0 0 0] 1;
    Cs              Cs [0 0 0 0 0 0 0] 0.25;
    Ceps            Ceps [0 0 0 0 0 0 0] 0.15;
}

LaunderGibsonRSTMCoeffs
{
    Cmu             Cmu [0 0 0 0 0 0 0] 0.09;
    Clg1            Clg1 [0 0 0 0 0 0 0] 1.8;
    Clg2            Clg2 [0 0 0 0 0 0 0] 0.6;
    C1              C1 [0 0 0 0 0 0 0] 1.44;
    C2              C2 [0 0 0 0 0 0 0] 1.92;
    C3              C3 [0 0 0 0 0 0 0] -0.33;
    alphah          alphah [0 0 0 0 0 0 0] 1;
    C1Ref           C1Ref [0 0 0 0 0 0 0] 0.5;
    C2Ref           C2Ref [0 0 0 0 0 0 0] 0.3;
    Cs              Cs [0 0 0 0 0 0 0] 0.25;
    Ceps            Ceps [0 0 0 0 0 0 0] 0.15;
}

wallFunctionCoeffs
{
    kappa            0.4187;
    E                9;
}


// ************************************************************************* //
