/*--------------------------------*- C++ -*----------------------------------*\
| =========                 |                                                 |
| \\      /  F ield         | OpenFOAM: The Open Source CFD Toolbox           |
|  \\    /   O peration     | Version:  2.1.x                                 |
|   \\  /    A nd           | Web:      www.OpenFOAM.org                      |
|    \\/     M anipulation  |                                                 |
\*---------------------------------------------------------------------------*/
FoamFile
{
    version     2.0;
    format      ascii;
    class       dictionary;
    location    "system";
    object      controlDict;
}
// * * * * * * * * * * * * * * * * * * * * * * * * * * * * * * * * * * * * * //

application     mmcFoam;

startFrom       startTime;
//startFrom       latestTime;

startTime       0.;

//stopAt          writeNow; //endTime;
stopAt          endTime;

//endTime         3.0e-03;
endTime         4.5e-01;

deltaT          1e-06;

writeControl    timeStep;

writeInterval   500;

writeFormat     ascii;

writePrecision  6;

writeCompression off;

timeFormat      general;

timePrecision   6;

runTimeModifiable true;

adjustTimeStep  yes;

maxCo           0.6;



functions
{
/*    probes
    {
        type            probes;
        functionObjectLibs ("libsampling.so");
        enabled         true;
        outputControl   timeStep;
        outputInterval  1;

        fields
        (
            p
        );

        probeLocations
        (
            ( 0.0254 0.0253 0 )
            ( 0.0508 0.0253 0 )
            ( 0.0762 0.0253 0 )
            ( 0.1016 0.0253 0 )
            ( 0.127 0.0253 0 )
            ( 0.1524 0.0253 0 )
            ( 0.1778 0.0253 0 )
        );

    } */

    fieldAverage1
    {
        type            fieldAverage;
        functionObjectLibs ("libfieldFunctionObjects.so");
        enabled         true;
        outputControl   outputTime;
	resetOnRestart  true;

        fields
        (
            U
            {
                mean        on;
                prime2Mean  on;
                base        time;
            }

            f
            {
                mean        on;
                prime2Mean  on;
                base        time;
            }
            
        );
    }

/*    surfaceSampling
    {
        // Sample near-wall velocity

        type surfaces;

        // Where to load it from (if not already in solver)
        functionObjectLibs ("libsampling.so");
        enabled         true;
        outputControl   outputTime;

        interpolationScheme cellPoint;

        surfaceFormat vtk;

        // Fields to be sampled
        fields
        (
            U
        );

        surfaces
        (
            nearWall
            {
                type            patchInternalField;
                patches         ( lowerWall );
                distance        1E-6;
                interpolate     true;
                triangulate     false;
            }
        );
    } */
}

// ************************************************************************* //
