/*--------------------------------*- C++ -*----------------------------------*\
| =========                 |                                                 |
| \\      /  F ield         | OpenFOAM: The Open Source CFD Toolbox           |
|  \\    /   O peration     | Version:  2.2.0                                 |
|   \\  /    A nd           | Web:      www.OpenFOAM.org                      |
|    \\/     M anipulation  |                                                 |
\*---------------------------------------------------------------------------*/
FoamFile
{
    version     2.0;
    format      ascii;
    class       dictionary;
    location    "system";
    object      fvSchemes;
}
// * * * * * * * * * * * * * * * * * * * * * * * * * * * * * * * * * * * * * //

ddtSchemes
{
    default         backward;
}

gradSchemes
{
    default         Gauss linear;
}

divSchemes
{
    div(phi,O2)		  	  Gauss limitedLinear  1;
    div(phi,N2)       	          Gauss limitedLinear  1;
    div(phi,H2O) 	          Gauss limitedLinear  1;
    div(phi,SIO2)                 Gauss limitedLinear  1;
    div(phi,SIO2-S5)              Gauss limitedLinear  1;
    div(phi,U)      	          Gauss linear;
    div(phi,f)      	          Gauss limitedLinear  1;
    div(phi,h)      	          Gauss limitedLinear  1;
    div(phid,pd)    	          Gauss limitedLinear  1;
    div(phid,p)     		  Gauss limitedLinear  1;
    div(phi,k) 			  Gauss limitedLinear  1;
    div((muEff*dev2(T(grad(U))))) Gauss linear;
}

laplacianSchemes
{
    default         Gauss linear corrected;
}

interpolationSchemes
{
    default         linear;
}

snGradSchemes
{
    default         corrected;
}

fluxRequired
{
    default         no;
    pd;
    p;
}

// ************************************************************************* //
