/*---------------------------------------------------------------------------*\
| =========                 |                                                 |
| \\      /  F ield         | OpenFOAM: The Open Source CFD Toolbox           |
|  \\    /   O peration     | Version:  1.4                                   |
|   \\  /    A nd           | Web:      http://www.openfoam.org               |
|    \\/     M anipulation  |                                                 |
\*---------------------------------------------------------------------------*/

FoamFile
{
    version         2.0;
    format          ascii;

    root            "";
    case            "";
    instance        "";
    local           "";

    class           dictionary;
    object          efficiencyFunctionProperties;
}

// * * * * * * * * * * * * * * * * * * * * * * * * * * * * * * * * * * * * * //

efficiencyFunction charletteWrinkling;

delta           cubeRootVol;

cubeRootVolCoeffs
{
    deltaCoeff      1;
}

constLamProperties false;
fixeddeltal0 5.0E-04;
fixedsl0 2.8E-01;
LamFileName "$FOAM_CASE/chemistry/phi_delta_sl";

// charletteCoeffs
Ck 1.5;
gamma 0.5;
b 1.4;
uPrimeCoeff 1.0;


// ************************************************************************* //
