/*--------------------------------*- C++ -*----------------------------------*\
| =========                 |                                                 |
| \\      /  F ield         | OpenFOAM: The Open Source CFD Toolbox           |
|  \\    /   O peration     | Version:  1.0                                   |
|   \\  /    A nd           | Web:      http://www.openfoam.org               |
|    \\/     M anipulation  |                                                 |
\*---------------------------------------------------------------------------*/

FoamFile
{
    version         2.0;
    format          ascii;

    root            "";
    case            "";
    instance        "";
    local           "";

    class           dictionary;
    object          ThermoPopeCloud;
}

// * * * * * * * * * * * * * * * * * * * * * * * * * * * * * * * * * * * * * //

fileName   "O2";

fields 
(
    {
        N 20;	
	    max 1;
	    min 0;
	    name f;
	}
);

output
( 
    {
        name f;
    }
    {
        name O20;
	}
    {
        name O21;
    }
    {
        name O22;
    }
    {
        name O23;
    }
    {
        name O24;
    }
    {
        name O25;
    }
);

values
(
21
(
0
0.05
0.1
0.15
0.2
0.25
0.3
0.35
0.4
0.45
0.5
0.55
0.6
0.65
0.7
0.75
0.8
0.85
0.9
0.95
1
)

21
(
0.233
0.1997142857
0.1664285714
0.1331428571
0.0998571429
0.0665714286
0.0332857143
0
0.0151538462
0.0303076923
0.0454615385
0.0606153846
0.0757692308
0.0909230769
0.1060769231
0.1212307692
0.1363846154
0.1515384615
0.1666923077
0.1818461538
0.197
)

21
(
0.233
0.2060114286
0.1790228571
0.1520342857
0.1250457143
0.0980571429
0.0710685714
0.04408
0.0558430769
0.0676061538
0.0793692308
0.0911323077
0.1028953846
0.1146584615
0.1264215385
0.1381846154
0.1499476923
0.1617107692
0.1734738462
0.1852369231
0.197
)

21
(
0.233
0.2123085714
0.1916171429
0.1709257143
0.1502342857
0.1295428571
0.1088514286
0.08816
0.0965323077
0.1049046154
0.1132769231
0.1216492308
0.1300215385
0.1383938462
0.1467661538
0.1551384615
0.1635107692
0.1718830769
0.1802553846
0.1886276923
0.197
)

21
(
0.233
0.2186057143
0.2042114286
0.1898171429
0.1754228571
0.1610285714
0.1466342857
0.13224
0.1372215385
0.1422030769
0.1471846154
0.1521661538
0.1571476923
0.1621292308
0.1671107692
0.1720923077
0.1770738462
0.1820553846
0.1870369231
0.1920184615
0.197
)

21
(
0.233
0.2249028571
0.2168057143
0.2087085714
0.2006114286
0.1925142857
0.1844171429
0.17632
0.1779107692
0.1795015385
0.1810923077
0.1826830769
0.1842738462
0.1858646154
0.1874553846
0.1890461538
0.1906369231
0.1922276923
0.1938184615
0.1954092308
0.197
)

21
(
0.233
0.2312
0.2294
0.2276
0.2258
0.224
0.2222
0.2204
0.2186
0.2168
0.215
0.2132
0.2114
0.2096
0.2078
0.206
0.2042
0.2024
0.2006
0.1988
0.197
)


);
// ************************************************************************* //
