/*--------------------------------*- C++ -*----------------------------------*\
| =========                 |                                                 |
| \\      /  F ield         | OpenFOAM: The Open Source CFD Toolbox           |
|  \\    /   O peration     | Version:  1.0                                   |
|   \\  /    A nd           | Web:      http://www.openfoam.org               |
|    \\/     M anipulation  |                                                 |
\*---------------------------------------------------------------------------*/

FoamFile
{
    version         2.0;
    format          ascii;

    root            "";
    case            "";
    instance        "";
    local           "";

    class           dictionary;
    object          ThermoPopeCloud;
}

// * * * * * * * * * * * * * * * * * * * * * * * * * * * * * * * * * * * * * //
fileName   "CH4";
fields 
(
    {
        N 20;	
	    max 1;
	    min 0;
	    name f;
	}
);

output
( 
    {
        name f;
    }
    {
        name CH40;
	}
    {
        name CH41;
    }
    {
        name CH42;
    }
    {
        name CH43;
    }
    {
        name CH44;
    }
    {
        name CH45;
    }
);

values
(
21
(
0
0.05
0.1
0.15
0.2
0.25
0.3
0.35
0.4
0.45
0.5
0.55
0.6
0.65
0.7
0.75
0.8
0.85
0.9
0.95
1
)

21
(
0
0
0
0
0
0
0
0
0.012
0.024
0.036
0.048
0.06
0.072
0.084
0.096
0.108
0.12
0.132
0.144
0.156
)

21
(
0
0.00156
0.00312
0.00468
0.00624
0.0078
0.00936
0.01092
0.02208
0.03324
0.0444
0.05556
0.06672
0.07788
0.08904
0.1002
0.11136
0.12252
0.13368
0.14484
0.156
)

21
(
0
0.00312
0.00624
0.00936
0.01248
0.0156
0.01872
0.02184
0.03216
0.04248
0.0528
0.06312
0.07344
0.08376
0.09408
0.1044
0.11472
0.12504
0.13536
0.14568
0.156
)

21
(
0
0.00468
0.00936
0.01404
0.01872
0.0234
0.02808
0.03276
0.04224
0.05172
0.0612
0.07068
0.08016
0.08964
0.09912
0.1086
0.11808
0.12756
0.13704
0.14652
0.156
)

21
(
0
0.00624
0.01248
0.01872
0.02496
0.0312
0.03744
0.04368
0.05232
0.06096
0.0696
0.07824
0.08688
0.09552
0.10416
0.1128
0.12144
0.13008
0.13872
0.14736
0.156
)

21
(
0
0.0078
0.0156
0.0234
0.0312
0.039
0.0468
0.0546
0.0624
0.0702
0.078
0.0858
0.0936
0.1014
0.1092
0.117
0.1248
0.1326
0.1404
0.1482
0.156
)

);
// ************************************************************************* //
