/*--------------------------------*- C++ -*----------------------------------*\
| =========                 |                                                 |
| \\      /  F ield         | OpenFOAM: The Open Source CFD Toolbox           |
|  \\    /   O peration     | Version:  2.1.0                                 |
|   \\  /    A nd           | Web:      www.OpenFOAM.org                      |
|    \\/     M anipulation  |                                                 |
\*---------------------------------------------------------------------------*/
FoamFile
{
    version     2.0;
    format      ascii;
    class       dictionary;
    location    "system";
    object      fvSchemes;
}
// * * * * * * * * * * * * * * * * * * * * * * * * * * * * * * * * * * * * * //

ddtSchemes
{
    default                                             backward;
}

gradSchemes
{
     default                                        Gauss linear;
}

divSchemes
{ 
    default                                                 none;
    div(phi,U)                                      Gauss linear;
    div(phi,f)                           Gauss limitedLinear01 1;
    div(((rho*nuEff)*dev2(T(grad(U)))))             Gauss linear;
    div(phi,Xii)                   Gauss multivariateIndependent
    {
        f                                      limitedLinear01 1;
    };
    div(phi,Yi_h)                    Gauss multivariateSelection
    {
        H2                                     limitedLinear01 1;
        O2                                     limitedLinear01 1;
        O                                      limitedLinear01 1;
        OH                                     limitedLinear01 1;
        H2O                                    limitedLinear01 1;
        H                                      limitedLinear01 1;
        HO2                                    limitedLinear01 1;
        CO                                     limitedLinear01 1;
        CO2                                    limitedLinear01 1;
        HCO                                    limitedLinear01 1;
        N2                                     limitedLinear01 1;
        NO                                     limitedLinear01 1;
        h                                        limitedLinear 1;
    };
}

laplacianSchemes
{
    default                              Gauss linear orthogonal;
}

interpolationSchemes
{
    default                                               linear;
}

snGradSchemes
{
    default                                           orthogonal;
}

fluxRequired
{
    default                                                   no;
    p;
}


// ************************************************************************* //
