/*--------------------------------*- C++ -*----------------------------------*\
| =========                 |                                                 |
| \\      /  F ield         | OpenFOAM: The Open Source CFD Toolbox           |
|  \\    /   O peration     | Version:  1.0                                   |
|   \\  /    A nd           | Web:      http://www.openfoam.org               |
|    \\/     M anipulation  |                                                 |
\*---------------------------------------------------------------------------*/

FoamFile
{
    version         2.0;
    format          ascii;

    root            "";
    case            "";
    instance        "";
    local           "";

    class           dictionary;
    object          ThermoPopeCloud;
}

// * * * * * * * * * * * * * * * * * * * * * * * * * * * * * * * * * * * * * //
fileName   "h";
fields 
(
    {
        N 39;	
	    max 1;
	    min 0;
	    name f;
	}
);

output
( 
    {
        name f;
    }
    {
        name h0;
	}
    {
        name h1;
    }
    {
        name h2;
    }
    {
        name h3;
    }
    {
        name h4;
    }
    {
        name h5;
    }
    {
        name h6;
    }
);

values
(
40
(
0
0.02564
0.05128
0.07692
0.10256
0.12821
0.15385
0.17949
0.20513
0.23077
0.25641
0.28205
0.30769
0.33333
0.35897
0.38462
0.41026
0.4359
0.46154
0.48718
0.51282
0.53846
0.5641
0.58974
0.61538
0.64103
0.66667
0.69231
0.71795
0.74359
0.76923
0.79487
0.82051
0.84615
0.87179
0.89744
0.92308
0.94872
0.97436
1
)

40
(
293
1380
2111
2061
1930
1813
1711
1619
1536
1460
1391
1326
1266
1209
1156
1105
1058
1012
969
927
887
848
811
775
740
706
673
640
609
578
547
518
489
460
431
403
375
348
320
293
)

40
(
293
1352
2009
2028
1909
1797
1697
1606
1524
1449
1380
1316
1257
1201
1148
1098
1051
1005
962
921
881
843
806
770
735
702
669
637
606
575
545
516
487
458
430
402
375
347
320
293

)

40
(
293
1257
1838
1937
1842
1743
1651
1566
1488
1417
1350
1288
1231
1176
1125
1076
1030
986
944
904
865
828
792
757
723
691
659
628
597
567
538
509
481
453
426
399
372
346
319
293
)

40
(
293
1168
1717
1843
1769
1683
1600
1522
1450
1382
1319
1259
1204
1151
1102
1055
1010
968
927
888
850
814
778
745
712
680
648
618
588
559
531
503
476
449
422
396
370
344
319
293
)

40
(
293
1135
1675
1800
1734
1655
1576
1501
1431
1365
1304
1246
1191
1140
1091
1045
1001
959
918
880
843
807
772
738
706
674
644
614
584
556
528
500
473
447
420
394
369
343
318
293
)

40
(
293
1099
1628
1743
1689
1618
1545
1474
1407
1344
1284
1228
1175
1125
1077
1032
988
947
907
869
833
798
764
731
699
668
637
608
579
551
523
496
470
444
418
392
367
342
318
293
)

40
(
293
293
293
293
293
293
293
293
293
293
293
293
293
293
293
293
293
293
293
293
293
293
293
293
293
293
293
293
293
293
293
293
293
293
293
293
293
293
293
293
)

);
// ************************************************************************* //
