/*--------------------------------*- C++ -*----------------------------------*\
| =========                 |                                                 |
| \\      /  F ield         | OpenFOAM: The Open Source CFD Toolbox           |
|  \\    /   O peration     | Version:  1.0                                   |
|   \\  /    A nd           | Web:      http://www.openfoam.org               |
|    \\/     M anipulation  |                                                 |
\*---------------------------------------------------------------------------*/

FoamFile
{
    version         2.0;
    format          ascii;

    root            "";
    case            "";
    instance        "";
    local           "";

    class           dictionary;
    object          ThermoPopeCloud;
}

// * * * * * * * * * * * * * * * * * * * * * * * * * * * * * * * * * * * * * //
fileName   "H2";
fields 
(
    {
        N 39;	
	    max 1;
	    min 0;
	    name f;
	}
);

output
( 
    {
        name f;
    }
    {
        name H20;
	}
    {
        name H21;
    }
    {
        name H22;
    }
    {
        name H23;
    }
    {
        name H24;
    }
    {
        name H25;
    }
    {
        name H26;
    }
);

values
(
40
(
0
0.02564
0.05128
0.07692
0.10256
0.12821
0.15385
0.17949
0.20513
0.23077
0.25641
0.28205
0.30769
0.33333
0.35897
0.38462
0.41026
0.4359
0.46154
0.48718
0.51282
0.53846
0.5641
0.58974
0.61538
0.64103
0.66667
0.69231
0.71795
0.74359
0.76923
0.79487
0.82051
0.84615
0.87179
0.89744
0.92308
0.94872
0.97436
1
)

40
(
0
3.919E-06
2.231E-04
2.002E-03
2.207E-03
2.289E-03
2.313E-03
2.301E-03
2.266E-03
2.216E-03
2.157E-03
2.091E-03
2.022E-03
1.950E-03
1.876E-03
1.802E-03
1.726E-03
1.651E-03
1.575E-03
1.500E-03
1.424E-03
1.349E-03
1.273E-03
1.198E-03
1.123E-03
1.048E-03
9.728E-04
8.979E-04
8.230E-04
7.482E-04
6.733E-04
5.985E-04
5.237E-04
4.489E-04
3.741E-04
2.992E-04
2.244E-04
1.496E-04
7.481E-05
0
)

40
(
0
2.760E-05
4.831E-04
2.365E-03
2.595E-03
2.668E-03
2.680E-03
2.658E-03
2.614E-03
2.555E-03
2.486E-03
2.410E-03
2.330E-03
2.246E-03
2.161E-03
2.074E-03
1.987E-03
1.899E-03
1.812E-03
1.724E-03
1.637E-03
1.550E-03
1.463E-03
1.377E-03
1.290E-03
1.204E-03
1.118E-03
1.032E-03
9.458E-04
8.597E-04
7.737E-04
6.877E-04
6.018E-04
5.158E-04
4.298E-04
3.439E-04
2.579E-04
1.719E-04
8.597E-05
0
)

40
(
0
1.573E-04
8.463E-04
3.192E-03
3.515E-03
3.605E-03
3.613E-03
3.576E-03
3.512E-03
3.429E-03
3.335E-03
3.232E-03
3.124E-03
3.012E-03
2.898E-03
2.783E-03
2.666E-03
2.550E-03
2.433E-03
2.317E-03
2.200E-03
2.084E-03
1.968E-03
1.852E-03
1.736E-03
1.620E-03
1.504E-03
1.388E-03
1.272E-03
1.157E-03
1.041E-03
9.252E-04
8.095E-04
6.939E-04
5.782E-04
4.626E-04
3.469E-04
2.313E-04
1.156E-04
0
)

40
(
0
3.360E-04
1.054E-03
3.474E-03
3.894E-03
4.017E-03
4.041E-03
4.011E-03
3.946E-03
3.860E-03
3.758E-03
3.646E-03
3.528E-03
3.404E-03
3.277E-03
3.149E-03
3.019E-03
2.888E-03
2.757E-03
2.625E-03
2.494E-03
2.362E-03
2.231E-03
2.099E-03
1.968E-03
1.836E-03
1.705E-03
1.574E-03
1.443E-03
1.311E-03
1.180E-03
1.049E-03
9.179E-04
7.868E-04
6.556E-04
5.245E-04
3.934E-04
2.623E-04
1.311E-04
0
)

40
(
0
4.147E-04
1.145E-03
3.428E-03
3.874E-03
4.013E-03
4.049E-03
4.026E-03
3.967E-03
3.884E-03
3.784E-03
3.674E-03
3.555E-03
3.432E-03
3.305E-03
3.176E-03
3.045E-03
2.913E-03
2.781E-03
2.649E-03
2.516E-03
2.383E-03
2.251E-03
2.118E-03
1.986E-03
1.853E-03
1.721E-03
1.588E-03
1.456E-03
1.323E-03
1.191E-03
1.059E-03
9.263E-04
7.940E-04
6.616E-04
5.293E-04
3.970E-04
2.647E-04
1.323E-04
0
)

40
(
0
5.119E-04
1.274E-03
3.268E-03
3.719E-03
3.877E-03
3.928E-03
3.917E-03
3.867E-03
3.791E-03
3.697E-03
3.591E-03
3.477E-03
3.358E-03
3.234E-03
3.109E-03
2.981E-03
2.852E-03
2.723E-03
2.594E-03
2.464E-03
2.334E-03
2.204E-03
2.074E-03
1.944E-03
1.815E-03
1.685E-03
1.555E-03
1.426E-03
1.296E-03
1.166E-03
1.037E-03
9.072E-04
7.776E-04
6.480E-04
5.184E-04
3.888E-04
2.592E-04
1.296E-04
0
)

40
(
0
0
0
0
0
0
0
0
0
0
0
0
0
0
0
0
0
6.604E-17
6.726E-17
6.833E-17
6.892E-17
6.903E-17
6.866E-17
0
0
0
0
0
0
0
0
0
0
0
0
0
0
0
0
0
)
);
// ************************************************************************* //
