/*--------------------------------*- C++ -*----------------------------------*\
| =========                 |                                                 |
| \\      /  F ield         | OpenFOAM: The Open Source CFD Toolbox           |
|  \\    /   O peration     | Version:  1.0                                   |
|   \\  /    A nd           | Web:      http://www.openfoam.org               |
|    \\/     M anipulation  |                                                 |
\*---------------------------------------------------------------------------*/

FoamFile
{
    version         2.0;
    format          ascii;

    root            "";
    case            "";
    instance        "";
    local           "";

    class           dictionary;
    object          ThermoPopeCloud;
}

// * * * * * * * * * * * * * * * * * * * * * * * * * * * * * * * * * * * * * //
fileName   "O2";
fields 
(
    {
        N 39;	
	    max 1;
	    min 0;
	    name f;
	}
);

output
( 
    {
        name f;
    }
    {
        name O20;
	}
    {
        name O21;
    }
    {
        name O22;
    }
    {
        name O23;
    }
    {
        name O24;
    }
    {
        name O25;
    }
    {
        name O26;
    }
);

values
(
40
(
0
0.02564
0.05128
0.07692
0.10256
0.12821
0.15385
0.17949
0.20513
0.23077
0.25641
0.28205
0.30769
0.33333
0.35897
0.38462
0.41026
0.4359
0.46154
0.48718
0.51282
0.53846
0.5641
0.58974
0.61538
0.64103
0.66667
0.69231
0.71795
0.74359
0.76923
0.79487
0.82051
0.84615
0.87179
0.89744
0.92308
0.94872
0.97436
1
)

40
(
2.330E-01
1.250E-01
2.051E-02
9.633E-04
1.508E-04
3.734E-05
1.195E-05
4.531E-06
1.937E-06
9.043E-07
4.519E-07
2.383E-07
1.312E-07
7.489E-08
4.400E-08
2.647E-08
1.624E-08
1.011E-08
6.381E-09
4.066E-09
2.612E-09
1.689E-09
1.099E-09
7.197E-10
4.757E-10
3.185E-10
2.168E-10
1.508E-10
1.074E-10
7.839E-11
5.858E-11
4.468E-11
3.460E-11
2.702E-11
2.106E-11
1.611E-11
1.176E-11
7.741E-12
3.854E-12
0
)

40
(
2.330E-01
1.260E-01
2.620E-02
3.189E-03
9.676E-04
3.938E-04
1.852E-04
9.524E-05
5.225E-05
3.014E-05
1.810E-05
1.123E-05
7.159E-06
4.665E-06
3.096E-06
2.088E-06
1.426E-06
9.866E-07
6.903E-07
4.888E-07
3.505E-07
2.550E-07
1.886E-07
1.420E-07
1.090E-07
8.524E-08
6.792E-08
5.501E-08
4.518E-08
3.751E-08
3.135E-08
2.628E-08
2.197E-08
1.820E-08
1.481E-08
1.166E-08
8.666E-09
5.751E-09
2.871E-09
0
)

40
(
2.330E-01
1.310E-01
3.610E-02
9.426E-03
4.659E-03
2.681E-03
1.659E-03
1.075E-03
7.211E-04
4.970E-04
3.506E-04
2.525E-04
1.855E-04
1.388E-04
1.059E-04
8.243E-05
6.548E-05
5.312E-05
4.401E-05
3.722E-05
3.208E-05
2.812E-05
2.499E-05
2.245E-05
2.033E-05
1.850E-05
1.686E-05
1.536E-05
1.395E-05
1.260E-05
1.129E-05
1.000E-05
8.735E-06
7.477E-06
6.225E-06
4.977E-06
3.732E-06
2.487E-06
1.244E-06
0
)

40
(
2.330E-01
1.360E-01
4.605E-02
1.758E-02
1.079E-02
7.369E-03
5.309E-03
3.975E-03
3.072E-03
2.442E-03
1.991E-03
1.663E-03
1.419E-03
1.235E-03
1.094E-03
9.832E-04
8.947E-04
8.222E-04
7.612E-04
7.085E-04
6.616E-04
6.190E-04
5.793E-04
5.417E-04
5.055E-04
4.703E-04
4.357E-04
4.016E-04
3.678E-04
3.341E-04
3.006E-04
2.671E-04
2.337E-04
2.003E-04
1.669E-04
1.335E-04
1.001E-04
6.674E-05
3.337E-05
0
)

40
(
2.330E-01
1.390E-01
5.083E-02
2.226E-02
1.451E-02
1.038E-02
7.804E-03
6.086E-03
4.894E-03
4.044E-03
3.422E-03
2.958E-03
2.606E-03
2.332E-03
2.115E-03
1.939E-03
1.793E-03
1.668E-03
1.559E-03
1.462E-03
1.373E-03
1.289E-03
1.210E-03
1.134E-03
1.059E-03
9.863E-04
9.144E-04
8.431E-04
7.722E-04
7.017E-04
6.313E-04
5.610E-04
4.908E-04
4.206E-04
3.505E-04
2.804E-04
2.103E-04
1.402E-04
7.010E-05
0
)

40
(
2.330E-01
1.420E-01
5.713E-02
2.913E-02
2.010E-02
1.501E-02
1.172E-02
9.473E-03
7.884E-03
6.727E-03
5.864E-03
5.205E-03
4.691E-03
4.280E-03
3.944E-03
3.662E-03
3.421E-03
3.208E-03
3.016E-03
2.840E-03
2.676E-03
2.519E-03
2.368E-03
2.221E-03
2.077E-03
1.935E-03
1.795E-03
1.655E-03
1.517E-03
1.378E-03
1.240E-03
1.102E-03
9.641E-04
8.263E-04
6.885E-04
5.508E-04
4.131E-04
2.754E-04
1.377E-04
0
)

40
(
2.330E-01
2.270E-01
2.210E-01
2.150E-01
2.090E-01
2.030E-01
1.970E-01
1.910E-01
1.850E-01
1.790E-01
1.730E-01
1.670E-01
1.610E-01
1.550E-01
1.490E-01
1.430E-01
1.370E-01
1.310E-01
1.250E-01
1.190E-01
1.140E-01
1.080E-01
1.020E-01
9.559E-02
8.962E-02
8.364E-02
7.767E-02
7.169E-02
6.572E-02
5.974E-02
5.377E-02
4.779E-02
4.182E-02
3.585E-02
2.987E-02
2.390E-02
1.792E-02
1.195E-02
5.974E-03
0
)

);
// ************************************************************************* //
