/*--------------------------------*- C++ -*----------------------------------*\
| =========                 |                                                 |
| \\      /  F ield         | OpenFOAM: The Open Source CFD Toolbox           |
|  \\    /   O peration     | Version:  1.0                                   |
|   \\  /    A nd           | Web:      http://www.openfoam.org               |
|    \\/     M anipulation  |                                                 |
\*---------------------------------------------------------------------------*/

FoamFile
{
    version         2.0;
    format          ascii;

    root            "";
    case            "";
    instance        "";
    local           "";

    class           dictionary;
    object          ThermoPopeCloud;
}

// * * * * * * * * * * * * * * * * * * * * * * * * * * * * * * * * * * * * * //
fileName   "N2";
fields 
(
    {
        N 39;	
	    max 1;
	    min 0;
	    name f;
	}
);

output
( 
    {
        name f;
    }
    {
        name N20;
	}
    {
        name N21;
    }
    {
        name N22;
    }
    {
        name N23;
    }
    {
        name N24;
    }
    {
        name N25;
    }
    {
        name N26;
    }
);

values
(
40
(
0
0.02564
0.05128
0.07692
0.10256
0.12821
0.15385
0.17949
0.20513
0.23077
0.25641
0.28205
0.30769
0.33333
0.35897
0.38462
0.41026
0.4359
0.46154
0.48718
0.51282
0.53846
0.5641
0.58974
0.61538
0.64103
0.66667
0.69231
0.71795
0.74359
0.76923
0.79487
0.82051
0.84615
0.87179
0.89744
0.92308
0.94872
0.97436
1
)

40
(
7.670E-01
7.472E-01
7.307E-01
7.099E-01
6.927E-01
6.729E-01
6.550E-01
6.359E-01
6.161E-01
5.973E-01
5.765E-01
5.575E-01
5.373E-01
5.181E-01
4.978E-01
4.776E-01
4.583E-01
4.381E-01
4.179E-01
3.976E-01
3.784E-01
3.582E-01
3.379E-01
3.187E-01
2.985E-01
2.783E-01
2.590E-01
2.388E-01
2.186E-01
1.993E-01
1.791E-01
1.589E-01
1.396E-01
1.194E-01
9.916E-02
7.993E-02
5.970E-02
3.947E-02
2.023E-02
0
)

40
(
7.670E-01
7.480E-01
7.332E-01
7.120E-01
6.928E-01
6.745E-01
6.552E-01
6.368E-01
6.170E-01
5.972E-01
5.775E-01
5.577E-01
5.385E-01
5.182E-01
4.980E-01
4.778E-01
4.586E-01
4.384E-01
4.182E-01
3.980E-01
3.788E-01
3.586E-01
3.384E-01
3.192E-01
2.990E-01
2.788E-01
2.586E-01
2.394E-01
2.192E-01
1.990E-01
1.788E-01
1.596E-01
1.394E-01
1.192E-01
1.000E-01
7.981E-02
5.961E-02
3.940E-02
2.020E-02
0
)

40
(
7.670E-01
7.490E-01
7.348E-01
7.136E-01
6.944E-01
6.761E-01
6.570E-01
6.373E-01
6.177E-01
5.971E-01
5.785E-01
5.581E-01
5.380E-01
5.188E-01
4.987E-01
4.786E-01
4.585E-01
4.383E-01
4.182E-01
3.991E-01
3.790E-01
3.589E-01
3.388E-01
3.187E-01
2.986E-01
2.795E-01
2.594E-01
2.393E-01
2.192E-01
1.991E-01
1.789E-01
1.598E-01
1.397E-01
1.196E-01
9.953E-02
7.942E-02
5.932E-02
4.021E-02
2.011E-02
0
)

40
(
7.670E-01
7.501E-01
7.349E-01
7.139E-01
6.951E-01
6.765E-01
6.570E-01
6.378E-01
6.184E-01
5.979E-01
5.794E-01
5.590E-01
5.388E-01
5.187E-01
4.996E-01
4.795E-01
4.595E-01
4.394E-01
4.193E-01
3.992E-01
3.792E-01
3.591E-01
3.390E-01
3.190E-01
2.999E-01
2.799E-01
2.598E-01
2.397E-01
2.197E-01
1.996E-01
1.796E-01
1.595E-01
1.394E-01
1.194E-01
1.003E-01
8.025E-02
6.018E-02
4.012E-02
2.006E-02
0
)

40
(
7.670E-01
7.496E-01
7.344E-01
7.144E-01
6.963E-01
6.772E-01
6.579E-01
6.379E-01
6.185E-01
5.991E-01
5.797E-01
5.591E-01
5.400E-01
5.199E-01
4.998E-01
4.797E-01
4.596E-01
4.395E-01
4.194E-01
3.993E-01
3.793E-01
3.602E-01
3.401E-01
3.201E-01
3.000E-01
2.799E-01
2.599E-01
2.398E-01
2.197E-01
1.997E-01
1.796E-01
1.595E-01
1.395E-01
1.204E-01
1.003E-01
8.027E-02
6.020E-02
4.013E-02
2.007E-02
0
)

40
(
7.670E-01
7.497E-01
7.334E-01
7.141E-01
6.958E-01
6.773E-01
6.586E-01
6.394E-01
6.201E-01
5.998E-01
5.804E-01
5.600E-01
5.408E-01
5.206E-01
5.005E-01
4.804E-01
4.602E-01
4.402E-01
4.200E-01
3.999E-01
3.808E-01
3.607E-01
3.406E-01
3.205E-01
3.004E-01
2.803E-01
2.603E-01
2.402E-01
2.201E-01
2.000E-01
1.799E-01
1.598E-01
1.397E-01
1.206E-01
1.005E-01
8.039E-02
6.028E-02
4.019E-02
2.010E-02
0
)

40
(
7.670E-01
7.474E-01
7.277E-01
7.081E-01
6.880E-01
6.690E-01
6.490E-01
6.300E-01
6.100E-01
5.900E-01
5.710E-01
5.510E-01
5.310E-01
5.120E-01
4.920E-01
4.720E-01
4.530E-01
4.330E-01
4.130E-01
3.940E-01
3.730E-01
3.540E-01
3.340E-01
3.144E-01
2.954E-01
2.754E-01
2.553E-01
2.363E-01
2.163E-01
1.963E-01
1.772E-01
1.572E-01
1.372E-01
1.181E-01
9.813E-02
7.910E-02
5.908E-02
3.905E-02
2.003E-02
0
)

);
// ************************************************************************* //
