/*--------------------------------*- C++ -*----------------------------------*\
| =========                 |                                                 |
| \\      /  F ield         | OpenFOAM: The Open Source CFD Toolbox           |
|  \\    /   O peration     | Version:  1.0                                   |
|   \\  /    A nd           | Web:      http://www.openfoam.org               |
|    \\/     M anipulation  |                                                 |
\*---------------------------------------------------------------------------*/

FoamFile
{
    version         2.0;
    format          ascii;

    root            "";
    case            "";
    instance        "";
    local           "";

    class           dictionary;
    object          ThermoPopeCloud;
}

// * * * * * * * * * * * * * * * * * * * * * * * * * * * * * * * * * * * * * //
fileName   "H2O";
fields 
(
    {
        N 39;	
	    max 1;
	    min 0;
	    name f;
	}
);

output
( 
    {
        name f;
    }
    {
        name H2O0;
	}
    {
        name H2O1;
    }
    {
        name H2O2;
    }
    {
        name H2O3;
    }
    {
        name H2O4;
    }
    {
        name H2O5;
    }
    {
        name H2O6;
    }
);

values
(
40
(
0
0.02564
0.05128
0.07692
0.10256
0.12821
0.15385
0.17949
0.20513
0.23077
0.25641
0.28205
0.30769
0.33333
0.35897
0.38462
0.41026
0.4359
0.46154
0.48718
0.51282
0.53846
0.5641
0.58974
0.61538
0.64103
0.66667
0.69231
0.71795
0.74359
0.76923
0.79487
0.82051
0.84615
0.87179
0.89744
0.92308
0.94872
0.97436
1
)

40
(
0
5.753E-02
1.120E-01
1.260E-01
1.230E-01
1.200E-01
1.160E-01
1.120E-01
1.090E-01
1.050E-01
1.020E-01
9.821E-02
9.470E-02
9.118E-02
8.767E-02
8.417E-02
8.066E-02
7.715E-02
7.364E-02
7.014E-02
6.663E-02
6.312E-02
5.962E-02
5.611E-02
5.260E-02
4.910E-02
4.559E-02
4.208E-02
3.857E-02
3.507E-02
3.156E-02
2.805E-02
2.455E-02
2.104E-02
1.753E-02
1.403E-02
1.052E-02
7.014E-03
3.507E-03
0
)

40
(
0
5.712E-02
1.080E-01
1.240E-01
1.220E-01
1.190E-01
1.160E-01
1.120E-01
1.090E-01
1.050E-01
1.020E-01
9.811E-02
9.460E-02
9.110E-02
8.759E-02
8.409E-02
8.059E-02
7.708E-02
7.358E-02
7.008E-02
6.657E-02
6.307E-02
5.956E-02
5.606E-02
5.256E-02
4.905E-02
4.555E-02
4.205E-02
3.854E-02
3.504E-02
3.153E-02
2.803E-02
2.453E-02
2.102E-02
1.752E-02
1.402E-02
1.051E-02
7.008E-03
3.504E-03
0
)

40
(
0
5.541E-02
1.030E-01
1.200E-01
1.200E-01
1.170E-01
1.140E-01
1.110E-01
1.080E-01
1.050E-01
1.010E-01
9.773E-02
9.427E-02
9.081E-02
8.733E-02
8.385E-02
8.036E-02
7.688E-02
7.338E-02
6.989E-02
6.640E-02
6.291E-02
5.941E-02
5.592E-02
5.242E-02
4.893E-02
4.544E-02
4.194E-02
3.845E-02
3.495E-02
3.146E-02
2.796E-02
2.447E-02
2.097E-02
1.748E-02
1.398E-02
1.049E-02
6.990E-03
3.495E-03
0
)

40
(
0
5.333E-02
9.995E-02
1.170E-01
1.180E-01
1.160E-01
1.140E-01
1.110E-01
1.080E-01
1.050E-01
1.010E-01
9.793E-02
9.453E-02
9.110E-02
8.765E-02
8.419E-02
8.070E-02
7.721E-02
7.372E-02
7.022E-02
6.671E-02
6.321E-02
5.970E-02
5.619E-02
5.268E-02
4.917E-02
4.566E-02
4.214E-02
3.863E-02
3.512E-02
3.161E-02
2.810E-02
2.458E-02
2.107E-02
1.756E-02
1.405E-02
1.054E-02
7.024E-03
3.512E-03
0
)

40
(
0
5.247E-02
9.902E-02
1.150E-01
1.160E-01
1.150E-01
1.130E-01
1.110E-01
1.080E-01
1.050E-01
1.010E-01
9.803E-02
9.467E-02
9.126E-02
8.782E-02
8.436E-02
8.088E-02
7.739E-02
7.389E-02
7.039E-02
6.688E-02
6.336E-02
5.985E-02
5.633E-02
5.281E-02
4.929E-02
4.577E-02
4.225E-02
3.873E-02
3.521E-02
3.169E-02
2.817E-02
2.465E-02
2.113E-02
1.761E-02
1.408E-02
1.056E-02
7.042E-03
3.521E-03
0
)

40
(
0
5.140E-02
9.767E-02
1.130E-01
1.150E-01
1.140E-01
1.120E-01
1.100E-01
1.070E-01
1.040E-01
1.010E-01
9.795E-02
9.463E-02
9.126E-02
8.785E-02
8.440E-02
8.094E-02
7.745E-02
7.396E-02
7.046E-02
6.695E-02
6.343E-02
5.991E-02
5.639E-02
5.287E-02
4.935E-02
4.583E-02
4.230E-02
3.878E-02
3.525E-02
3.173E-02
2.820E-02
2.468E-02
2.115E-02
1.763E-02
1.410E-02
1.058E-02
7.051E-03
3.525E-03
0
)
40
(
0
7.795E-13
1.559E-12
2.338E-12
3.116E-12
3.894E-12
4.669E-12
5.443E-12
6.214E-12
6.981E-12
7.743E-12
8.499E-12
9.243E-12
9.953E-12
1.056E-11
1.110E-11
1.152E-11
1.187E-11
0
1.183E-11
1.146E-11
1.103E-11
1.057E-11
1.010E-11
9.618E-12
9.119E-12
8.605E-12
8.075E-12
7.527E-12
6.961E-12
6.374E-12
5.766E-12
5.136E-12
4.482E-12
3.803E-12
3.097E-12
2.363E-12
1.600E-12
8.077E-13
0
)

);
// ************************************************************************* //
