/*--------------------------------*- C++ -*----------------------------------*\
| =========                 |                                                 |
| \\      /  F ield         | OpenFOAM: The Open Source CFD Toolbox           |
|  \\    /   O peration     | Version:  1.0                                   |
|   \\  /    A nd           | Web:      http://www.openfoam.org               |
|    \\/     M anipulation  |                                                 |
\*---------------------------------------------------------------------------*/

FoamFile
{
    version         2.0;
    format          ascii;

    root            "";
    case            "";
    instance        "";
    local           "";

    class           dictionary;
    object          ThermoPopeCloud;
}

// * * * * * * * * * * * * * * * * * * * * * * * * * * * * * * * * * * * * * //
fileName   "CO2";
fields 
(
    {
        N 39;	
	    max 1;
	    min 0;
	    name f;
	}
);

output
( 
    {
        name f;
    }
    {
        name CO20;
	}
    {
        name CO21;
    }
    {
        name CO22;
    }
    {
        name CO23;
    }
    {
        name CO24;
    }
    {
        name CO25;
    }
    {
        name CO26;
    }
);

values
(
40
(
0
0.02564
0.05128
0.07692
0.10256
0.12821
0.15385
0.17949
0.20513
0.23077
0.25641
0.28205
0.30769
0.33333
0.35897
0.38462
0.41026
0.4359
0.46154
0.48718
0.51282
0.53846
0.5641
0.58974
0.61538
0.64103
0.66667
0.69231
0.71795
0.74359
0.76923
0.79487
0.82051
0.84615
0.87179
0.89744
0.92308
0.94872
0.97436
1
)

40
(
0
6.974E-02
1.290E-01
1.080E-01
1.030E-01
1.010E-01
9.774E-02
9.493E-02
9.207E-02
8.918E-02
8.626E-02
8.331E-02
8.036E-02
7.739E-02
7.442E-02
7.145E-02
6.848E-02
6.550E-02
6.253E-02
5.955E-02
5.657E-02
5.359E-02
5.062E-02
4.764E-02
4.466E-02
4.168E-02
3.871E-02
3.573E-02
3.275E-02
2.977E-02
2.680E-02
2.382E-02
2.084E-02
1.786E-02
1.489E-02
1.191E-02
8.932E-03
5.955E-03
2.977E-03
0
)

40
(
0
6.584E-02
1.170E-01
1.050E-01
1.020E-01
9.857E-02
9.571E-02
9.286E-02
9.000E-02
8.712E-02
8.424E-02
8.134E-02
7.845E-02
7.555E-02
7.265E-02
6.974E-02
6.684E-02
6.393E-02
6.103E-02
5.812E-02
5.521E-02
5.231E-02
4.940E-02
4.650E-02
4.359E-02
4.068E-02
3.778E-02
3.487E-02
3.197E-02
2.906E-02
2.615E-02
2.325E-02
2.034E-02
1.744E-02
1.453E-02
1.162E-02
8.718E-03
5.812E-03
2.906E-03
0
)

40
(
0
5.372E-02
9.821E-02
9.435E-02
9.174E-02
8.920E-02
8.664E-02
8.406E-02
8.146E-02
7.885E-02
7.623E-02
7.361E-02
7.099E-02
6.836E-02
6.573E-02
6.311E-02
6.048E-02
5.785E-02
5.522E-02
5.259E-02
4.996E-02
4.733E-02
4.470E-02
4.207E-02
3.944E-02
3.681E-02
3.418E-02
3.155E-02
2.892E-02
2.629E-02
2.367E-02
2.104E-02
1.841E-02
1.578E-02
1.315E-02
1.052E-02
7.888E-03
5.259E-03
2.629E-03
0
)

40
(
0
4.243E-02
7.907E-02
7.988E-02
7.825E-02
7.629E-02
7.419E-02
7.203E-02
6.982E-02
6.760E-02
6.536E-02
6.312E-02
6.087E-02
5.862E-02
5.637E-02
5.411E-02
5.186E-02
4.961E-02
4.735E-02
4.510E-02
4.284E-02
4.059E-02
3.833E-02
3.608E-02
3.382E-02
3.157E-02
2.931E-02
2.706E-02
2.480E-02
2.255E-02
2.029E-02
1.804E-02
1.578E-02
1.353E-02
1.127E-02
9.019E-03
6.765E-03
4.510E-03
2.255E-03
0
)

40
(
0
3.773E-02
7.054E-02
7.261E-02
7.141E-02
6.972E-02
6.786E-02
6.590E-02
6.390E-02
6.187E-02
5.983E-02
5.778E-02
5.573E-02
5.367E-02
5.161E-02
4.954E-02
4.748E-02
4.542E-02
4.335E-02
4.129E-02
3.923E-02
3.716E-02
3.510E-02
3.303E-02
3.097E-02
2.890E-02
2.684E-02
2.477E-02
2.271E-02
2.065E-02
1.858E-02
1.652E-02
1.445E-02
1.239E-02
1.032E-02
8.258E-03
6.194E-03
4.129E-03
2.065E-03
0
)

40
(
0
3.235E-02
6.058E-02
6.351E-02
6.278E-02
6.144E-02
5.987E-02
5.818E-02
5.644E-02
5.466E-02
5.287E-02
5.106E-02
4.925E-02
4.743E-02
4.561E-02
4.379E-02
4.197E-02
4.014E-02
3.832E-02
3.650E-02
3.467E-02
3.285E-02
3.102E-02
2.920E-02
2.737E-02
2.555E-02
2.372E-02
2.190E-02
2.007E-02
1.825E-02
1.642E-02
1.460E-02
1.277E-02
1.095E-02
9.124E-03
7.299E-03
5.475E-03
3.650E-03
1.825E-03
0
)

40
(
0
0
0
0
0
0
0
0
0
0
0
0
0
0
0
0
0
0
0
0
0
0
0
0
0
0
0
0
0
0
0
0
0
0
0
0
0
0
0
0
)
);
// ************************************************************************* //
