/*--------------------------------*- C++ -*----------------------------------*\
| =========                 |                                                 |
| \\      /  F ield         | OpenFOAM: The Open Source CFD Toolbox           |
|  \\    /   O peration     | Version:  1.0                                   |
|   \\  /    A nd           | Web:      http://www.openfoam.org               |
|    \\/     M anipulation  |                                                 |
\*---------------------------------------------------------------------------*/

FoamFile
{
    version         2.0;
    format          ascii;

    root            "";
    case            "";
    instance        "";
    local           "";

    class           dictionary;
    object          ThermoPopeCloud;
}

// * * * * * * * * * * * * * * * * * * * * * * * * * * * * * * * * * * * * * //
fileName   "CO";
fields 
(
    {
        N 39;	
	    max 1;
	    min 0;
	    name f;
	}
);

output
( 
    {
        name f;
    }
    {
        name CO0;
	}
    {
        name CO1;
    }
    {
        name CO;
    }
    {
        name CO3;
    }
    {
        name CO4;
    }
    {
        name CO5;
    }
    {
        name CO6;
    }
);

values
(
40
(
0
0.02564
0.05128
0.07692
0.10256
0.12821
0.15385
0.17949
0.20513
0.23077
0.25641
0.28205
0.30769
0.33333
0.35897
0.38462
0.41026
0.4359
0.46154
0.48718
0.51282
0.53846
0.5641
0.58974
0.61538
0.64103
0.66667
0.69231
0.71795
0.74359
0.76923
0.79487
0.82051
0.84615
0.87179
0.89744
0.92308
0.94872
0.97436
1
)

40
(
0
4.924E-04
7.592E-03
4.150E-02
4.234E-02
4.137E-02
4.012E-02
3.884E-02
3.757E-02
3.632E-02
3.508E-02
3.386E-02
3.264E-02
3.142E-02
3.021E-02
2.900E-02
2.779E-02
2.658E-02
2.537E-02
2.416E-02
2.296E-02
2.175E-02
2.054E-02
1.933E-02
1.812E-02
1.691E-02
1.571E-02
1.450E-02
1.329E-02
1.208E-02
1.087E-02
9.666E-03
8.457E-03
7.249E-03
6.041E-03
4.833E-03
3.625E-03
2.416E-03
1.208E-03
0
)

40
(
0
2.974E-03
1.514E-02
4.316E-02
4.462E-02
4.396E-02
4.285E-02
4.162E-02
4.034E-02
3.905E-02
3.775E-02
3.645E-02
3.515E-02
3.385E-02
3.255E-02
3.125E-02
2.995E-02
2.865E-02
2.734E-02
2.604E-02
2.474E-02
2.344E-02
2.214E-02
2.084E-02
1.953E-02
1.823E-02
1.693E-02
1.563E-02
1.432E-02
1.302E-02
1.172E-02
1.042E-02
9.115E-03
7.813E-03
6.511E-03
5.209E-03
3.907E-03
2.604E-03
1.302E-03
0
)

40
(
0
1.068E-02
2.701E-02
5.173E-02
5.407E-02
5.400E-02
5.316E-02
5.197E-02
5.060E-02
4.914E-02
4.761E-02
4.605E-02
4.446E-02
4.285E-02
4.123E-02
3.960E-02
3.796E-02
3.632E-02
3.468E-02
3.303E-02
3.138E-02
2.973E-02
2.808E-02
2.643E-02
2.478E-02
2.313E-02
2.148E-02
1.982E-02
1.817E-02
1.652E-02
1.487E-02
1.322E-02
1.156E-02
9.912E-03
8.260E-03
6.608E-03
4.956E-03
3.304E-03
1.652E-03
0
)

40
(
0
1.777E-02
3.872E-02
6.063E-02
6.348E-02
6.383E-02
6.324E-02
6.214E-02
6.075E-02
5.917E-02
5.746E-02
5.566E-02
5.381E-02
5.191E-02
4.998E-02
4.803E-02
4.607E-02
4.409E-02
4.210E-02
4.011E-02
3.811E-02
3.611E-02
3.411E-02
3.210E-02
3.010E-02
2.809E-02
2.609E-02
2.408E-02
2.208E-02
2.007E-02
1.806E-02
1.605E-02
1.405E-02
1.204E-02
1.003E-02
8.027E-03
6.021E-03
4.014E-03
2.007E-03
0
)

40
(
0
2.066E-02
4.375E-02
6.395E-02
6.705E-02
6.760E-02
6.713E-02
6.608E-02
6.469E-02
6.306E-02
6.129E-02
5.941E-02
5.745E-02
5.544E-02
5.339E-02
5.132E-02
4.922E-02
4.711E-02
4.499E-02
4.286E-02
4.073E-02
3.859E-02
3.646E-02
3.431E-02
3.217E-02
3.003E-02
2.788E-02
2.574E-02
2.360E-02
2.145E-02
1.931E-02
1.716E-02
1.502E-02
1.287E-02
1.073E-02
8.580E-03
6.435E-03
4.290E-03
2.145E-03
0
)

40
(
0
2.383E-02
4.929E-02
6.702E-02
7.045E-02
7.129E-02
7.099E-02
7.003E-02
6.866E-02
6.702E-02
6.518E-02
6.322E-02
6.116E-02
5.904E-02
5.687E-02
5.467E-02
5.245E-02
5.020E-02
4.795E-02
4.568E-02
4.341E-02
4.114E-02
3.886E-02
3.658E-02
3.429E-02
3.201E-02
2.972E-02
2.744E-02
2.515E-02
2.286E-02
2.058E-02
1.829E-02
1.601E-02
1.372E-02
1.143E-02
9.146E-03
6.859E-03
4.573E-03
2.286E-03
0
)

40
(
0
0
0
0
0
0
0
0
0
0
0
0
0
0
0
0
0
9.278E-16
9.450E-16
9.600E-16
9.683E-16
9.698E-16
9.645E-16
0
0
0
0
0
0
0
0
0
0
0
0
0
0
0
0
0
)
);
// ************************************************************************* //
