/*--------------------------------*- C++ -*----------------------------------*\
| =========                 |                                                 |
| \\      /  F ield         | OpenFOAM: The Open Source CFD Toolbox           |
|  \\    /   O peration     | Version:  1.0                                   |
|   \\  /    A nd           | Web:      http://www.openfoam.org               |
|    \\/     M anipulation  |                                                 |
\*---------------------------------------------------------------------------*/

FoamFile
{
    version         2.0;
    format          ascii;

    root            "";
    case            "";
    instance        "";
    local           "";

    class           dictionary;
    object          ThermoPopeCloud;
}

// * * * * * * * * * * * * * * * * * * * * * * * * * * * * * * * * * * * * * //
fileName   "CH4";
fields 
(
    {
        N 39;	
	    max 1;
	    min 0;
	    name f;
	}
);

output
( 
    {
        name f;
    }
    {
        name CH40;
	}
    {
        name CH41;
    }
    {
        name CH42;
    }
    {
        name CH43;
    }
    {
        name CH44;
    }
    {
        name CH45;
    }
    {
        name CH46;
    }
);

values
(
40
(
0
0.02564
0.05128
0.07692
0.10256
0.12821
0.15385
0.17949
0.20513
0.23077
0.25641
0.28205
0.30769
0.33333
0.35897
0.38462
0.41026
0.4359
0.46154
0.48718
0.51282
0.53846
0.5641
0.58974
0.61538
0.64103
0.66667
0.69231
0.71795
0.74359
0.76923
0.79487
0.82051
0.84615
0.87179
0.89744
0.92308
0.94872
0.97436
1
)

40
(
0
1.639E-08
2.746E-06
1.168E-02
3.657E-02
6.237E-02
8.881E-02
1.160E-01
1.430E-01
1.700E-01
1.980E-01
2.250E-01
2.530E-01
2.800E-01
3.080E-01
3.360E-01
3.630E-01
3.910E-01
4.190E-01
4.470E-01
4.740E-01
5.020E-01
5.300E-01
5.570E-01
5.850E-01
6.130E-01
6.400E-01
6.680E-01
6.960E-01
7.230E-01
7.510E-01
7.790E-01
8.060E-01
8.340E-01
8.620E-01
8.890E-01
9.170E-01
9.450E-01
9.720E-01
1
)

40
(
0
2.651E-07
1.295E-05
1.029E-02
3.504E-02
6.092E-02
8.739E-02
1.140E-01
1.410E-01
1.690E-01
1.960E-01
2.240E-01
2.510E-01
2.790E-01
3.070E-01
3.350E-01
3.620E-01
3.900E-01
4.180E-01
4.460E-01
4.730E-01
5.010E-01
5.290E-01
5.560E-01
5.840E-01
6.120E-01
6.400E-01
6.670E-01
6.950E-01
7.230E-01
7.510E-01
7.780E-01
8.060E-01
8.340E-01
8.610E-01
8.890E-01
9.170E-01
9.450E-01
9.720E-01
1
)

40
(
0
5.882E-06
6.691E-05
7.670E-03
3.165E-02
5.746E-02
8.397E-02
1.110E-01
1.380E-01
1.660E-01
1.930E-01
2.210E-01
2.490E-01
2.760E-01
3.040E-01
3.320E-01
3.600E-01
3.880E-01
4.160E-01
4.430E-01
4.710E-01
4.990E-01
5.270E-01
5.550E-01
5.830E-01
6.100E-01
6.380E-01
6.660E-01
6.940E-01
7.220E-01
7.500E-01
7.770E-01
8.050E-01
8.330E-01
8.610E-01
8.890E-01
9.170E-01
9.440E-01
9.720E-01
1
)

40
(
0
4.345E-05
2.176E-04
7.537E-03
3.052E-02
5.596E-02
8.227E-02
1.090E-01
1.360E-01
1.640E-01
1.910E-01
2.190E-01
2.470E-01
2.750E-01
3.020E-01
3.300E-01
3.580E-01
3.860E-01
4.140E-01
4.420E-01
4.700E-01
4.980E-01
5.260E-01
5.540E-01
5.810E-01
6.090E-01
6.370E-01
6.650E-01
6.930E-01
7.210E-01
7.490E-01
7.770E-01
8.050E-01
8.330E-01
8.600E-01
8.880E-01
9.160E-01
9.440E-01
9.720E-01
1
)

40
(
0
9.058E-05
3.612E-04
8.306E-03
3.090E-02
5.610E-02
8.226E-02
1.090E-01
1.360E-01
1.630E-01
1.910E-01
2.190E-01
2.460E-01
2.740E-01
3.020E-01
3.300E-01
3.580E-01
3.860E-01
4.140E-01
4.420E-01
4.700E-01
4.970E-01
5.250E-01
5.530E-01
5.810E-01
6.090E-01
6.370E-01
6.650E-01
6.930E-01
7.210E-01
7.490E-01
7.770E-01
8.050E-01
8.320E-01
8.600E-01
8.880E-01
9.160E-01
9.440E-01
9.720E-01
1
)

40
(
0
2.059E-04
6.706E-04
9.963E-03
3.218E-02
5.704E-02
8.294E-02
1.090E-01
1.360E-01
1.640E-01
1.910E-01
2.190E-01
2.460E-01
2.740E-01
3.020E-01
3.300E-01
3.580E-01
3.860E-01
4.140E-01
4.420E-01
4.690E-01
4.970E-01
5.250E-01
5.530E-01
5.810E-01
6.090E-01
6.370E-01
6.650E-01
6.930E-01
7.210E-01
7.490E-01
7.770E-01
8.050E-01
8.320E-01
8.600E-01
8.880E-01
9.160E-01
9.440E-01
9.720E-01
1
)

40
(
0
2.564E-02
5.128E-02
7.692E-02
1.030E-01
1.280E-01
1.540E-01
1.790E-01
2.050E-01
2.310E-01
2.560E-01
2.820E-01
3.080E-01
3.330E-01
3.590E-01
3.850E-01
4.100E-01
4.360E-01
4.620E-01
4.870E-01
5.130E-01
5.380E-01
5.640E-01
5.900E-01
6.150E-01
6.410E-01
6.670E-01
6.920E-01
7.180E-01
7.440E-01
7.690E-01
7.950E-01
8.210E-01
8.460E-01
8.720E-01
8.970E-01
9.230E-01
9.490E-01
9.740E-01
1
)
);
// ************************************************************************* //
