/*--------------------------------*- C++ -*----------------------------------*\
| =========                 |                                                 |
| \\      /  F ield         | OpenFOAM: The Open Source CFD Toolbox           |
|  \\    /   O peration     | Version:  1.7.1                                 |
|   \\  /    A nd           | Web:      www.OpenFOAM.com                      |
|    \\/     M anipulation  |                                                 |
\*---------------------------------------------------------------------------*/
FoamFile
{
    version     2.0;
    format      ascii;
    class       dictionary;
    object      extrudeProperties;
}
// * * * * * * * * * * * * * * * * * * * * * * * * * * * * * * * * * * * * * //


patchName       inletFuel;  // patch name where to apply     

lambda          139;  // 1/d a scaling factor

divFree	        false;  // not implemented 

Ubulk			49.6;     // 

integralLength  0.125;    //  integral length/D [-] 

var (1.0 0.0 0.0 0.0 1.0 0.0 0.0 0.0 49.6);

// * * * * * * * * * * * * * * * * * * * * * * * * * * * * * * * * * * * * * //


