             /*--------------------------------*- C++ -*----------------------------------*\
| =========                 |                                                 |
| \\      /  F ield         | OpenFOAM: The Open Source CFD Toolbox           |
|  \\    /   O peration     | Version:  2.0.1                                 |
|   \\  /    A nd           | Web:      www.OpenFOAM.com                      |
|    \\/     M anipulation  |                                                 |
\*---------------------------------------------------------------------------*/
FoamFile
{
    version     2.0;
    format      ascii;
    class       dictionary;
    location    "constant";
    object      FlameletTableProperties;
}
// * * * * * * * * * * * * * * * * * * * * * * * * * * * * * * * * * * * * * //
nRow		2;
nCol		7;
f_tol		0.0001;

fuel
{
  CO	0.55112300;
  H2	0.00793295;
  N2	0.44094400;
  T	500;
}

oxidizer
{
  O2	0.275759;
  N2	0.724241;
  T	500;
}
