/*--------------------------------*- C++ -*----------------------------------*\
| =========                 |                                                 |
| \\      /  F ield         | OpenFOAM: The Open Source CFD Toolbox           |
|  \\    /   O peration     | Version:  1.0                                   |
|   \\  /    A nd           | Web:      http://www.openfoam.org               |
|    \\/     M anipulation  |                                                 |
\*---------------------------------------------------------------------------*/

FoamFile
{
    version         2.0;
    format          ascii;

    root            "";
    case            "";
    instance        "";
    local           "";
    class           dictionary;
    object          ThermoPopeCloud;
}

// * * * * * * * * * * * * * * * * * * * * * * * * * * * * * * * * * * * * * //

fileName    "O2";

fields
(
    {
        N 1;
        max 1;
        min 0;
        name f;
    }
);

output
(
    {
       name f;
    }
    {
       name O20;
    }
);

values
(
    // f 
    2  
    (
        1.00000e-04
        9.99900e-01
    )

    // line 1
    2  
    (
        2.32870e-01
        0.00000e+00
    )
);
