/*--------------------------------*- C++ -*----------------------------------*\
| =========                 |                                                 |
| \\      /  F ield         | OpenFOAM Extend Project: Open source CFD        |
|  \\    /   O peration     | Version:  1.6-ext                               |
|   \\  /    A nd           | Web:      www.extend-project.de                 |
|    \\/     M anipulation  |                                                 |
\*---------------------------------------------------------------------------*/
FoamFile
{
    version     2.0;
    format      ascii;
    class       dictionary;
    note        "mesh decomposition control dictionary";
    location    "system";
    object      decomposeParDict;
}

// * * * * * * * * * * * * * * * * * * * * * * * * * * * * * * * * * * * * * //

numberOfSubdomains  4;

method          hierarchical;
//method          manual; 
//method          scotch;

simpleCoeffs
{
    n           (2 1 8);
    delta       0.001;
}

hierarchicalCoeffs
{
    n           (1 1 4);
    delta       0.001;
    order       zxy;
}

metisCoeffs
{
    processorWeights
    (1 1 1 1);
}

scotchCoeffs
{
    processorWeights
    (1 1 1 1 1 1 1 1 1 1
     1 1 1 1 1 1 1 1 1 1 
     1 1 1 1 1 1 1 1 1 1
     1 1);
    //writeGraph  true;
    //strategy "b";
}

manualCoeffs
{
    dataFile    "cellDecomposition";
}


//// Is the case distributed
//distributed     yes;
//// Per slave (so nProcs-1 entries) the directory above the case.
//roots           
//(
//    "/tmp"
//    "/tmp"
//);

// ************************************************************************* //
