/*--------------------------------*- C++ -*----------------------------------*\
 * | =========                 |                                                 |
 * | \\      /  F ield         | OpenFOAM: The Open Source CFD Toolbox           |
 * |  \\    /   O peration     | Version:  1.0                                   |
 * |   \\  /    A nd           | Web:      http://www.openfoam.org               |
 * |    \\/     M anipulation  |                                                 |
 * \*---------------------------------------------------------------------------*/

FoamFile
{
    version         2.0;
    format          ascii;
    
    root            "";
    case            "";
    instance        "";
    local           "";
    
    class           dictionary;
    object          sprayProperties;
}

// * * * * * * * * * * * * * * * * * * * * * * * * * * * * * * * * * * * * * //

solution
{
    //- FV fields to particle interpolation
    
    interpolationSchemes
    {
        U           cellPoint;
        DEff        cellPoint;
        rho         cellPoint;
        gradRho     cellPoint;
        f           cellPoint;
        p           cellPoint;
    }
}

particleManagement
{
    // Particle number control

    numCtlOn    on;

    Npc         1;
    Nlo         1;
    Nhi         1;
}

subModels
{
    InflowBoundaryModel         FreeStream;
    
    compositionModel            singlePhaseMixture;
    
    radiationModel              none;

    thermoPhysicalCouplingModel none;
    
    mixingModel              MMCcurl;
    
    reactionModel               none;

    sootModel                   none;
    
    synthesisModel              sectionalHomogeneousNucleationCondensation;
   

 
    MMCcurlCoeffs
    {
        //- Parameters ri and fm as per Eq.(29) Cleary & Klimenko, Phys Fluids 23, 115102, 2011
        ri 		    6.7e-3;

        Ximi
        {
            fm              0.03;    
        }

        localnessLimited    false;

        fLowMixOnMaster     0.01;
        fHighMixOnMaster    1;

        fullSort            false;
        aISO                true; 
        meanTimeScale       true; //true:mean false:max

        pairingMethod       global;
    }

    sectionalHomogeneousNucleationCondensationCoeffs
    {
        nSections       90;
        d0              1e-09;
        volGrowthFactor 1.7280002100845353;

   
        nucleatingSpecies       C16H22O4;
        inertSpecies            N2;

        liquidDensityModelCoeffs
        {
            // density [kg/m^3] = m*T + n
            m    -0.8;
            n    1200;
        }

        surfaceTensionModelCoeffs
        {
            // sigma [kg/s^2] = m*T + n
            m   -0.0002;
            n    0.1100;
        }

        saturationPressureModelCoeffs
        {
            // Psat [Pa] = 10^(a*T^2 + b*T + c)
            a   -0.00012;
            b    0.12;
            c   -30;
        }

        nucleationRateModel     veroli;
        condensationRateModel   FuchsSutugin;
    }

    printMoleFractions true;
}

thermophysicalCoupling
{
    // List of species for which equivalent mass fraction solutions are obtained on the FV grid
    
    N2;
    O2;
    C16H22O4;
    
    primarySpecies   C16H22O4;
    condVariable     z;
    
    tauRelax         20;
    tauUnits         timestep;
}

// Calculate stochastic field statistics on the fly
stochasticFieldStats    on;

eulerianStatistics
{
    enabled           false;

    outputInterval    20;

    axisymmetric      true;
    symmetryPlane     zy;
    
    z;
    f;
    T;

    wt;
    df;
    dx;
    
    C16H22O4;
    N2;
    O2;

    saturation;
    nucleationRate;
    condensationRate;

    sizeBin00;
    sizeBin01;
    sizeBin02;
    sizeBin03;
    sizeBin04;
    sizeBin05;
    sizeBin06;
    sizeBin07;
    sizeBin08;
    sizeBin09;
    sizeBin10;
    sizeBin11;
    sizeBin12;
    sizeBin13;
    sizeBin14;
    sizeBin15;
    sizeBin16;
    sizeBin17;
    sizeBin18;
    sizeBin19;
    sizeBin20;
    sizeBin21;
    sizeBin22;
    sizeBin23;
    sizeBin24;
    sizeBin25;
    sizeBin26;
    sizeBin27;
    sizeBin28;
    sizeBin29;
    sizeBin30;
    sizeBin31;
    sizeBin32; 
    sizeBin33;
    sizeBin34;
    sizeBin35;
    sizeBin36;
    sizeBin37;
    sizeBin38;
    sizeBin39;
    sizeBin40;
    sizeBin41;
    sizeBin42;
    sizeBin43;
    sizeBin44;
    sizeBin45;
    sizeBin46;
    sizeBin47;
    sizeBin48;
    sizeBin49;
    sizeBin50;
    sizeBin51;
    sizeBin52;
    sizeBin53;
    sizeBin54;
    sizeBin55;
    sizeBin56;
    sizeBin57;
    sizeBin58;
    sizeBin59; 
    sizeBin60; 
    sizeBin61;
    sizeBin62;
    sizeBin63;
    sizeBin64;
    sizeBin65;
    sizeBin66;
    sizeBin67;
    sizeBin68;
    sizeBin69;
    sizeBin70;
    sizeBin71;
    sizeBin72;
    sizeBin73;
    sizeBin74;
    sizeBin75;
    sizeBin76;
    sizeBin77;
    sizeBin78;
    sizeBin79;
    sizeBin80;
    sizeBin81;
    sizeBin82;
    sizeBin83;
    sizeBin84;
    sizeBin85;
    sizeBin86;
    sizeBin87;
    sizeBin88;
    sizeBin89;
}

particleSampling
{
    sampling        false;
}

// ************************************************************************* //
