/*--------------------------------*- C++ -*----------------------------------*\
| =========                 |                                                 |
| \\      /  F ield         | OpenFOAM: The Open Source CFD Toolbox           |
|  \\    /   O peration     | Version:  1.0                                   |
|   \\  /    A nd           | Web:      http://www.openfoam.org               |
|    \\/     M anipulation  |                                                 |
\*---------------------------------------------------------------------------*/

FoamFile
{
    version         2.0;
    format          ascii;

    root            "";
    case            "";
    instance        "";
    local           "";

    class           dictionary;
    object          ThermoPopeCloud;
}

// * * * * * * * * * * * * * * * * * * * * * * * * * * * * * * * * * * * * * //
fileName   "h";
fields 
(
    {
        N 20;    
        max 1;
        min 0;
        name f;
    }
);

output
( 
    {
        name f;
    }
    {
        name h0;
    }
    {
        name h1;
    }
    {
        name h2;
    }
    {
        name h3;
    }
    {
        name h4;
    }
    {
        name h5;
    }
);

values
(
21
(
0
0.05
0.1
0.15
0.2
0.25
0.3
0.35
0.4
0.45
0.5
0.55
0.6
0.65
0.7
0.75
0.8
0.85
0.9
0.95
1
)

21
(
0
400000
800000
1200000
1600000
2000000
2400000
2800000
2584615.38461538
2369230.76923077
2153846.15384615
1938461.53846154
1723076.92307692
1507692.30769231
1292307.69230769
1076923.07692308
861538.461538461
646153.846153846
430769.230769231
215384.615384615
0
)

21
(
0
320000
640000
960000
1280000
1600000
1920000
2240000
2067692.30769231
1895384.61538462
1723076.92307692
1550769.23076923
1378461.53846154
1206153.84615385
1033846.15384615
861538.461538462
689230.769230769
516923.076923077
344615.384615384
172307.692307692
0
)

21
(
0
240000
480000
720000
960000
1200000
1440000
1680000
1550769.23076923
1421538.46153846
1292307.69230769
1163076.92307692
1033846.15384615
904615.384615384
775384.615384615
646153.846153846
516923.076923077
387692.307692308
258461.538461538
129230.769230769
0
)

21
(
0
160000
320000
480000
640000
800000
960000
1120000
1033846.15384615
947692.307692308
861538.461538461
775384.615384615
689230.769230769
603076.923076923
516923.076923077
430769.230769231
344615.384615384
258461.538461538
172307.692307692
86153.8461538458
0
)

21
(
0
80000
160000
240000
320000
400000
480000
560000
516923.076923077
473846.153846154
430769.230769231
387692.307692308
344615.384615384
301538.461538461
258461.538461538
215384.615384615
172307.692307692
129230.769230769
86153.846153846
43076.9230769229
0
)

21
(
0
0
0
0
0
0
0
0
0
0
0
0
0
0
0
0
0
0
0
0
0
)

);
// ************************************************************************* //
