/*--------------------------------*- C++ -*----------------------------------*\
| =========                 |                                                 |
| \\      /  F ield         | OpenFOAM: The Open Source CFD Toolbox           |
|  \\    /   O peration     | Version:  2.1.0                                 |
|   \\  /    A nd           | Web:      www.OpenFOAM.org                      |
|    \\/     M anipulation  |                                                 |
\*---------------------------------------------------------------------------*/
FoamFile
{
    version     2.0;
    format      ascii;
    class       dictionary;
    location    "constant";
    object      LESProperties;
}
// * * * * * * * * * * * * * * * * * * * * * * * * * * * * * * * * * * * * * //


LESModel        Smagorinsky;

delta           cubeRootVol;

turbulence      on;

printCoeffs     on;

cubeRootVolCoeffs
{
    deltaCoeff      1;
}

SmagorinskyCoeffs
{
    ce              1.048;
    Prt             1;
    ck                0.095;
}

// ************************************************************************* //
