/*--------------------------------*- C++ -*----------------------------------*\
| =========                 |                                                 |
| \\      /  F ield         | OpenFOAM: The Open Source CFD Toolbox           |
|  \\    /   O peration     | Version:  1.0                                   |
|   \\  /    A nd           | Web:      http://www.openfoam.org               |
|    \\/     M anipulation  |                                                 |
\*---------------------------------------------------------------------------*/

FoamFile
{
    version         2.0;
    format          ascii;

    root            "";
    case            "";
    instance        "";
    local           "";

    class           dictionary;
    object          ThermoPopeCloud;
}

// * * * * * * * * * * * * * * * * * * * * * * * * * * * * * * * * * * * * * //

//fileName   "CO2";

fields 
(
    {
        N 20;    
    max 1;
    min 0;
    name f;
    }
);

output
( 
    {
        name f;
    }

    {
        name CO20;
    }
);

values
(
21
(
0
0.05
0.1
0.15
0.2
0.25
0.3
0.35
0.4
0.45
0.5
0.55
0.6
0.65
0.7
0.75
0.8
0.85
0.9
0.95
1
)

21
(
293.00
2000.00
1910.16
1820.32
1730.47
1640.63
1550.79
1460.95
1371.11
1281.26
1191.42
1101.58
1011.74
921.89
832.05
742.21
652.37
562.53
472.68
382.84
293.00
)


);
// ************************************************************************* //
