/*--------------------------------*- C++ -*----------------------------------*\
| =========                 |                                                 |
| \\      /  F ield         | OpenFOAM: The Open Source CFD Toolbox           |
|  \\    /   O peration     | Version:  1.0                                   |
|   \\  /    A nd           | Web:      http://www.openfoam.org               |
|    \\/     M anipulation  |                                                 |
\*---------------------------------------------------------------------------*/

FoamFile
{
    version         2.0;
    format          ascii;

    root            "";
    case            "";
    instance        "";
    local           "";

    class           dictionary;
    object          ThermoPopeCloud;
}

// * * * * * * * * * * * * * * * * * * * * * * * * * * * * * * * * * * * * * //
fileName   "N2";
fields 
(
    {
        N 20;    
        max 1;
        min 0;
        name f;
    }
);

output
( 
    {
        name f;
    }
    {
        name N20;
    }
    {
        name N21;
    }
    {
        name N22;
    }
    {
        name N23;
    }
    {
        name N24;
    }
    {
        name N25;
    }
);

values
(
21
(
0
0.05
0.1
0.15
0.2
0.25
0.3
0.35
0.4
0.45
0.5
0.55
0.6
0.65
0.7
0.75
0.8
0.85
0.9
0.95
1
)

21
(
0.76430
0.77699
0.78821
0.79947
0.81070
0.82188
0.83303
0.84415
0.85524
0.86630
0.88038
0.89606
0.91042
0.92347
0.93519
0.94559
0.95468
0.96244
0.96888
0.97400
0.97640
)

21
(
0.76430
0.77657
0.78767
0.79880
0.80991
0.82097
0.83201
0.84302
0.85402
0.86499
0.87837
0.89304
0.90665
0.91921
0.93071
0.94115
0.95054
0.95887
0.96614
0.97236
0.97640
)

21
(
0.76430
0.77615
0.78713
0.79813
0.80911
0.82006
0.83099
0.84190
0.85280
0.86368
0.87637
0.89002
0.90288
0.91495
0.92622
0.93671
0.94640
0.95530
0.96340
0.97072
0.97640
)

21
(
0.76430
0.77574
0.78659
0.79746
0.80831
0.81915
0.82997
0.84078
0.85158
0.86237
0.87436
0.88700
0.89911
0.91069
0.92174
0.93226
0.94226
0.95173
0.96067
0.96908
0.97640
)

21
(
0.76430
0.77532
0.78605
0.79679
0.80752
0.81824
0.82895
0.83966
0.85036
0.86106
0.87236
0.88398
0.89533
0.90643
0.91725
0.92782
0.93812
0.94816
0.95793
0.96744
0.97640
)

21
(
0.76430
0.77491
0.78551
0.79612
0.80672
0.81733
0.82793
0.83854
0.84914
0.85975
0.87035
0.88096
0.89156
0.90217
0.91277
0.92338
0.93398
0.94459
0.95519
0.96580
0.97640
)

);
// ************************************************************************* //
