/*--------------------------------*- C++ -*----------------------------------*\
| =========                 |                                                 |
| \\      /  F ield         | OpenFOAM: The Open Source CFD Toolbox           |
|  \\    /   O peration     | Version:  4.x                                 |
|   \\  /    A nd           | Web:      http://www.openfoam.org               |
|    \\/     M anipulation  |                                                 |
\*---------------------------------------------------------------------------*/

FoamFile
{
    version         2.0;
    format          ascii;

    root            "";
    case            "";
    instance        "";
    local           "";

    class           dictionary;
    object          mmcVariablesDefinitions;
}   
    
variables
{ 
    f
    {
        name            f;
        couplingName    z;
        passive         true;
        mixStep         1;
        MMCType         couplingAndreferenceVar;
        referenceType   evolved;          
    }
}
