/*--------------------------------*- C++ -*----------------------------------*\
| =========                 |                                                 |
| \\      /  F ield         | OpenFOAM: The Open Source CFD Toolbox           |
|  \\    /   O peration     | Version:  1.0                                   |
|   \\  /    A nd           | Web:      http://www.openfoam.org               |
|    \\/     M anipulation  |                                                 |
\*---------------------------------------------------------------------------*/

FoamFile
{
    version         2.0;
    format          ascii;

    root            "";
    case            "";
    instance        "";
    local           "";

    class           dictionary;
    object          ThermoPopeCloud;
}

// * * * * * * * * * * * * * * * * * * * * * * * * * * * * * * * * * * * * * //
fileName   "CO";
fields 
(
    {
        N 79;	
	    max 1;
	    min 0;
	    name f;
	}
);

output
( 
    {
        name f;
    }
    {
        name CO0;
	}
);

values
(
80
(
0
0.01266
0.02532
0.03797
0.05063
0.06329
0.07595
0.08861
0.10127
0.11392
0.12658
0.13924
0.1519
0.16456
0.17722
0.18987
0.20253
0.21519
0.22785
0.24051
0.25316
0.26582
0.27848
0.29114
0.3038
0.31646
0.32911
0.34177
0.35443
0.36709
0.37975
0.39241
0.40506
0.41772
0.43038
0.44304
0.4557
0.46835
0.48101
0.49367
0.50633
0.51899
0.53165
0.5443
0.55696
0.56962
0.58228
0.59494
0.60759
0.62025
0.63291
0.64557
0.65823
0.67089
0.68354
0.6962
0.70886
0.72152
0.73418
0.74684
0.75949
0.77215
0.78481
0.79747
0.81013
0.82278
0.83544
0.8481
0.86076
0.87342
0.88608
0.89873
0.91139
0.92405
0.93671
0.94937
0.96203
0.97468
0.98734
1
)

80
(
0.00E+000
7.68E-003
1.54E-002
2.30E-002
3.07E-002
3.73E-002
3.68E-002
3.63E-002
3.58E-002
3.53E-002
3.48E-002
3.43E-002
3.38E-002
3.33E-002
3.28E-002
3.23E-002
3.18E-002
3.13E-002
3.08E-002
3.03E-002
2.98E-002
2.93E-002
2.88E-002
2.83E-002
2.77E-002
2.72E-002
2.67E-002
2.62E-002
2.57E-002
2.52E-002
2.47E-002
2.42E-002
2.37E-002
2.32E-002
2.27E-002
2.22E-002
2.17E-002
2.12E-002
2.07E-002
2.02E-002
1.97E-002
1.92E-002
1.87E-002
1.82E-002
1.77E-002
1.72E-002
1.66E-002
1.61E-002
1.56E-002
1.51E-002
1.46E-002
1.41E-002
1.36E-002
1.31E-002
1.26E-002
1.21E-002
1.16E-002
1.11E-002
1.06E-002
1.01E-002
9.59E-003
9.08E-003
8.58E-003
8.07E-003
7.57E-003
7.06E-003
6.56E-003
6.05E-003
5.55E-003
5.05E-003
4.54E-003
4.04E-003
3.53E-003
3.03E-003
2.52E-003
2.02E-003
1.51E-003
1.01E-003
5.05E-004
0.00E+000
)
);
// ************************************************************************* //
