/*--------------------------------*- C++ -*----------------------------------*\
| =========                 |                                                 |
| \\      /  F ield         | OpenFOAM: The Open Source CFD Toolbox           |
|  \\    /   O peration     | Version:  1.0                                   |
|   \\  /    A nd           | Web:      http://www.openfoam.org               |
|    \\/     M anipulation  |                                                 |
\*---------------------------------------------------------------------------*/

FoamFile
{
    version         2.0;
    format          ascii;

    root            "";
    case            "";
    instance        "";
    local           "";

    class           dictionary;
    object          ThermoPopeCloud;
}

// * * * * * * * * * * * * * * * * * * * * * * * * * * * * * * * * * * * * * //
fileName   "CH4";
fields 
(
    {
        N 79;	
	    max 1;
	    min 0;
	    name f;
	}
);

output
( 
    {
        name f;
    }
    {
        name CH40;
	}
);

values
(
80
(
0
0.01266
0.02532
0.03797
0.05063
0.06329
0.07595
0.08861
0.10127
0.11392
0.12658
0.13924
0.1519
0.16456
0.17722
0.18987
0.20253
0.21519
0.22785
0.24051
0.25316
0.26582
0.27848
0.29114
0.3038
0.31646
0.32911
0.34177
0.35443
0.36709
0.37975
0.39241
0.40506
0.41772
0.43038
0.44304
0.4557
0.46835
0.48101
0.49367
0.50633
0.51899
0.53165
0.5443
0.55696
0.56962
0.58228
0.59494
0.60759
0.62025
0.63291
0.64557
0.65823
0.67089
0.68354
0.6962
0.70886
0.72152
0.73418
0.74684
0.75949
0.77215
0.78481
0.79747
0.81013
0.82278
0.83544
0.8481
0.86076
0.87342
0.88608
0.89873
0.91139
0.92405
0.93671
0.94937
0.96203
0.97468
0.98734
1
)

80
(
0.00E+000
0.00E+000
0.00E+000
0.00E+000
0.00E+000
1.75E-003
1.52E-002
2.87E-002
4.22E-002
5.57E-002
6.92E-002
8.27E-002
9.62E-002
1.10E-001
1.23E-001
1.37E-001
1.50E-001
1.64E-001
1.77E-001
1.91E-001
2.04E-001
2.18E-001
2.31E-001
2.45E-001
2.58E-001
2.72E-001
2.85E-001
2.99E-001
3.12E-001
3.26E-001
3.39E-001
3.52E-001
3.66E-001
3.79E-001
3.93E-001
4.06E-001
4.20E-001
4.33E-001
4.47E-001
4.60E-001
4.74E-001
4.87E-001
5.01E-001
5.14E-001
5.28E-001
5.41E-001
5.55E-001
5.68E-001
5.82E-001
5.95E-001
6.09E-001
6.22E-001
6.36E-001
6.49E-001
6.63E-001
6.76E-001
6.90E-001
7.03E-001
7.17E-001
7.30E-001
7.44E-001
7.57E-001
7.71E-001
7.84E-001
7.98E-001
8.11E-001
8.25E-001
8.38E-001
8.52E-001
8.65E-001
8.79E-001
8.92E-001
9.06E-001
9.19E-001
9.33E-001
9.46E-001
9.60E-001
9.73E-001
9.87E-001
1.00E+000
)
);
// ************************************************************************* //
