/*--------------------------------*- C++ -*----------------------------------*\
| =========                 |                                                 |
| \\      /  F ield         | OpenFOAM: The Open Source CFD Toolbox           |
|  \\    /   O peration     | Version:  1.0                                   |
|   \\  /    A nd           | Web:      http://www.openfoam.org               |
|    \\/     M anipulation  |                                                 |
\*---------------------------------------------------------------------------*/

FoamFile
{
    version         2.0;
    format          ascii;

    root            "";
    case            "";
    instance        "";
    local           "";

    class           dictionary;
    object          ThermoPopeCloud;
}

// * * * * * * * * * * * * * * * * * * * * * * * * * * * * * * * * * * * * * //
fileName   "N2";
fields 
(
    {
        N 79;	
	    max 1;
	    min 0;
	    name f;
	}
);

output
( 
    {
        name f;
    }
    {
        name N20;
	}
);

values
(
80
(
0
0.01266
0.02532
0.03797
0.05063
0.06329
0.07595
0.08861
0.10127
0.11392
0.12658
0.13924
0.1519
0.16456
0.17722
0.18987
0.20253
0.21519
0.22785
0.24051
0.25316
0.26582
0.27848
0.29114
0.3038
0.31646
0.32911
0.34177
0.35443
0.36709
0.37975
0.39241
0.40506
0.41772
0.43038
0.44304
0.4557
0.46835
0.48101
0.49367
0.50633
0.51899
0.53165
0.5443
0.55696
0.56962
0.58228
0.59494
0.60759
0.62025
0.63291
0.64557
0.65823
0.67089
0.68354
0.6962
0.70886
0.72152
0.73418
0.74684
0.75949
0.77215
0.78481
0.79747
0.81013
0.82278
0.83544
0.8481
0.86076
0.87342
0.88608
0.89873
0.91139
0.92405
0.93671
0.94937
0.96203
0.97468
0.98734
1
)

80
(
7.67E-001
7.59E-001
7.50E-001
7.42E-001
7.34E-001
7.25E-001
7.15E-001
7.05E-001
6.96E-001
6.86E-001
6.76E-001
6.66E-001
6.56E-001
6.47E-001
6.37E-001
6.27E-001
6.17E-001
6.07E-001
5.98E-001
5.88E-001
5.78E-001
5.68E-001
5.58E-001
5.49E-001
5.39E-001
5.29E-001
5.19E-001
5.09E-001
5.00E-001
4.90E-001
4.80E-001
4.70E-001
4.60E-001
4.51E-001
4.41E-001
4.31E-001
4.21E-001
4.11E-001
4.02E-001
3.92E-001
3.82E-001
3.72E-001
3.62E-001
3.53E-001
3.43E-001
3.33E-001
3.23E-001
3.13E-001
3.04E-001
2.94E-001
2.84E-001
2.74E-001
2.65E-001
2.55E-001
2.45E-001
2.35E-001
2.25E-001
2.16E-001
2.06E-001
1.96E-001
1.86E-001
1.76E-001
1.67E-001
1.57E-001
1.47E-001
1.37E-001
1.27E-001
1.18E-001
1.08E-001
9.80E-002
8.82E-002
7.84E-002
6.86E-002
5.88E-002
4.90E-002
3.92E-002
2.94E-002
1.96E-002
9.80E-003
0.00E+000
)
);
// ************************************************************************* //
