/*--------------------------------*- C++ -*----------------------------------*\
| =========                 |                                                 |
| \\      /  F ield         | OpenFOAM: The Open Source CFD Toolbox           |
|  \\    /   O peration     | Version:  1.0                                   |
|   \\  /    A nd           | Web:      http://www.openfoam.org               |
|    \\/     M anipulation  |                                                 |
\*---------------------------------------------------------------------------*/

FoamFile
{
    version         2.0;
    format          ascii;

    root            "";
    case            "";
    instance        "";
    local           "";

    class           dictionary;
    object          ThermoPopeCloud;
}

// * * * * * * * * * * * * * * * * * * * * * * * * * * * * * * * * * * * * * //
fileName   "CO2";
fields 
(
    {
        N 79;	
	    max 1;
	    min 0;
	    name f;
	}
);

output
( 
    {
        name f;
    }
    {
        name CO20;
	}
);

values
(
80
(
0
0.01266
0.02532
0.03797
0.05063
0.06329
0.07595
0.08861
0.10127
0.11392
0.12658
0.13924
0.1519
0.16456
0.17722
0.18987
0.20253
0.21519
0.22785
0.24051
0.25316
0.26582
0.27848
0.29114
0.3038
0.31646
0.32911
0.34177
0.35443
0.36709
0.37975
0.39241
0.40506
0.41772
0.43038
0.44304
0.4557
0.46835
0.48101
0.49367
0.50633
0.51899
0.53165
0.5443
0.55696
0.56962
0.58228
0.59494
0.60759
0.62025
0.63291
0.64557
0.65823
0.67089
0.68354
0.6962
0.70886
0.72152
0.73418
0.74684
0.75949
0.77215
0.78481
0.79747
0.81013
0.82278
0.83544
0.8481
0.86076
0.87342
0.88608
0.89873
0.91139
0.92405
0.93671
0.94937
0.96203
0.97468
0.98734
1
)

80
(
6.94E-018
2.28E-002
4.56E-002
6.84E-002
9.12E-002
1.11E-001
1.09E-001
1.08E-001
1.06E-001
1.05E-001
1.03E-001
1.02E-001
1.00E-001
9.88E-002
9.73E-002
9.58E-002
9.43E-002
9.28E-002
9.13E-002
8.98E-002
8.83E-002
8.68E-002
8.54E-002
8.39E-002
8.24E-002
8.09E-002
7.94E-002
7.79E-002
7.64E-002
7.49E-002
7.34E-002
7.19E-002
7.04E-002
6.89E-002
6.74E-002
6.59E-002
6.44E-002
6.29E-002
6.14E-002
5.99E-002
5.84E-002
5.69E-002
5.54E-002
5.39E-002
5.24E-002
5.09E-002
4.94E-002
4.79E-002
4.64E-002
4.49E-002
4.34E-002
4.19E-002
4.04E-002
3.89E-002
3.74E-002
3.59E-002
3.44E-002
3.29E-002
3.14E-002
2.99E-002
2.85E-002
2.70E-002
2.55E-002
2.40E-002
2.25E-002
2.10E-002
1.95E-002
1.80E-002
1.65E-002
1.50E-002
1.35E-002
1.20E-002
1.05E-002
8.98E-003
7.49E-003
5.99E-003
4.49E-003
3.00E-003
1.50E-003
0.00E+000
)

);
// ************************************************************************* //
