/*--------------------------------*- C++ -*----------------------------------*\
| =========                 |                                                 |
| \\      /  F ield         | OpenFOAM: The Open Source CFD Toolbox           |
|  \\    /   O peration     | Version:  1.0                                   |
|   \\  /    A nd           | Web:      http://www.openfoam.org               |
|    \\/     M anipulation  |                                                 |
\*---------------------------------------------------------------------------*/

FoamFile
{
    version         2.0;
    format          ascii;

    root            "";
    case            "";
    instance        "";
    local           "";

    class           dictionary;
    object          ThermoPopeCloud;
}

// * * * * * * * * * * * * * * * * * * * * * * * * * * * * * * * * * * * * * //
fileName   "H2O";
fields 
(
    {
        N 79;	
	    max 1;
	    min 0;
	    name f;
	}
);

output
( 
    {
        name f;
    }
    {
        name H2O0;
	}
);

values
(
80
(
0
0.01266
0.02532
0.03797
0.05063
0.06329
0.07595
0.08861
0.10127
0.11392
0.12658
0.13924
0.1519
0.16456
0.17722
0.18987
0.20253
0.21519
0.22785
0.24051
0.25316
0.26582
0.27848
0.29114
0.3038
0.31646
0.32911
0.34177
0.35443
0.36709
0.37975
0.39241
0.40506
0.41772
0.43038
0.44304
0.4557
0.46835
0.48101
0.49367
0.50633
0.51899
0.53165
0.5443
0.55696
0.56962
0.58228
0.59494
0.60759
0.62025
0.63291
0.64557
0.65823
0.67089
0.68354
0.6962
0.70886
0.72152
0.73418
0.74684
0.75949
0.77215
0.78481
0.79747
0.81013
0.82278
0.83544
0.8481
0.86076
0.87342
0.88608
0.89873
0.91139
0.92405
0.93671
0.94937
0.96203
0.97468
0.98734
1
)

80
(
0.00E+000
2.55E-002
5.09E-002
7.64E-002
1.02E-001
1.24E-001
1.22E-001
1.20E-001
1.19E-001
1.17E-001
1.15E-001
1.14E-001
1.12E-001
1.10E-001
1.09E-001
1.07E-001
1.05E-001
1.04E-001
1.02E-001
1.00E-001
9.87E-002
9.70E-002
9.53E-002
9.37E-002
9.20E-002
9.03E-002
8.87E-002
8.70E-002
8.53E-002
8.36E-002
8.20E-002
8.03E-002
7.86E-002
7.69E-002
7.53E-002
7.36E-002
7.19E-002
7.03E-002
6.86E-002
6.69E-002
6.52E-002
6.36E-002
6.19E-002
6.02E-002
5.85E-002
5.69E-002
5.52E-002
5.35E-002
5.19E-002
5.02E-002
4.85E-002
4.68E-002
4.52E-002
4.35E-002
4.18E-002
4.01E-002
3.85E-002
3.68E-002
3.51E-002
3.35E-002
3.18E-002
3.01E-002
2.84E-002
2.68E-002
2.51E-002
2.34E-002
2.17E-002
2.01E-002
1.84E-002
1.67E-002
1.51E-002
1.34E-002
1.17E-002
1.00E-002
8.36E-003
6.69E-003
5.02E-003
3.35E-003
1.67E-003
0.00E+000

)

);
// ************************************************************************* //
