/*--------------------------------*- C++ -*----------------------------------*\
| =========                 |                                                 |
| \\      /  F ield         | OpenFOAM: The Open Source CFD Toolbox           |
|  \\    /   O peration     | Version:  1.0                                   |
|   \\  /    A nd           | Web:      http://www.openfoam.org               |
|    \\/     M anipulation  |                                                 |
\*---------------------------------------------------------------------------*/

FoamFile
{
    version         2.0;
    format          ascii;

    root            "";
    case            "";
    instance        "";
    local           "";

    class           dictionary;
    object          ThermoPopeCloud;
}

// * * * * * * * * * * * * * * * * * * * * * * * * * * * * * * * * * * * * * //
fileName   "H2";
fields 
(
    {
        N 79;	
	    max 1;
	    min 0;
	    name f;
	}
);

output
( 
    {
        name f;
    }
    {
        name H20;
	}
);

values
(
80
(
0
0.01266
0.02532
0.03797
0.05063
0.06329
0.07595
0.08861
0.10127
0.11392
0.12658
0.13924
0.1519
0.16456
0.17722
0.18987
0.20253
0.21519
0.22785
0.24051
0.25316
0.26582
0.27848
0.29114
0.3038
0.31646
0.32911
0.34177
0.35443
0.36709
0.37975
0.39241
0.40506
0.41772
0.43038
0.44304
0.4557
0.46835
0.48101
0.49367
0.50633
0.51899
0.53165
0.5443
0.55696
0.56962
0.58228
0.59494
0.60759
0.62025
0.63291
0.64557
0.65823
0.67089
0.68354
0.6962
0.70886
0.72152
0.73418
0.74684
0.75949
0.77215
0.78481
0.79747
0.81013
0.82278
0.83544
0.8481
0.86076
0.87342
0.88608
0.89873
0.91139
0.92405
0.93671
0.94937
0.96203
0.97468
0.98734
1
)

80
(
0.00E+000
2.85E-004
5.71E-004
8.56E-004
1.14E-003
1.39E-003
1.37E-003
1.35E-003
1.33E-003
1.31E-003
1.29E-003
1.28E-003
1.26E-003
1.24E-003
1.22E-003
1.20E-003
1.18E-003
1.16E-003
1.14E-003
1.13E-003
1.11E-003
1.09E-003
1.07E-003
1.05E-003
1.03E-003
1.01E-003
9.94E-004
9.75E-004
9.56E-004
9.38E-004
9.19E-004
9.00E-004
8.81E-004
8.63E-004
8.44E-004
8.25E-004
8.06E-004
7.88E-004
7.69E-004
7.50E-004
7.31E-004
7.13E-004
6.94E-004
6.75E-004
6.56E-004
6.38E-004
6.19E-004
6.00E-004
5.81E-004
5.63E-004
5.44E-004
5.25E-004
5.06E-004
4.88E-004
4.69E-004
4.50E-004
4.31E-004
4.13E-004
3.94E-004
3.75E-004
3.56E-004
3.38E-004
3.19E-004
3.00E-004
2.81E-004
2.63E-004
2.44E-004
2.25E-004
2.06E-004
1.88E-004
1.69E-004
1.50E-004
1.31E-004
1.13E-004
9.38E-005
7.50E-005
5.62E-005
3.75E-005
1.88E-005
0.00E+000

)

);
// ************************************************************************* //
