/*--------------------------------*- C++ -*----------------------------------*\
| =========                 |                                                 |
| \\      /  F ield         | OpenFOAM: The Open Source CFD Toolbox           |
|  \\    /   O peration     | Version:  1.0                                   |
|   \\  /    A nd           | Web:      http://www.openfoam.org               |
|    \\/     M anipulation  |                                                 |
\*---------------------------------------------------------------------------*/

FoamFile
{
    version         2.0;
    format          ascii;

    root            "";
    case            "";
    instance        "";
    local           "";

    class           dictionary;
    object          ThermoPopeCloud;
}

// * * * * * * * * * * * * * * * * * * * * * * * * * * * * * * * * * * * * * //
fileName   "N2";
fields 
(
    {
        N 79;	
	    max 1;
	    min 0;
	    name f;
	}
);

output
( 
    {
        name f;
    }
    {
        name N20;
	}
/*    {*/
/*        name N21;*/
/*    }*/
/*    {*/
/*        name N22;*/
/*    }*/
/*    {*/
/*        name N23;*/
/*    }*/
/*    {*/
/*        name N24;*/
/*    }*/
/*    {*/
/*        name N25;*/
/*    }*/
/*    {*/
/*        name N26;*/
/*    }*/
);

values
(
80
(
0
0.01266
0.02532
0.03797
0.05063
0.06329
0.07595
0.08861
0.10127
0.11392
0.12658
0.13924
0.1519
0.16456
0.17722
0.18987
0.20253
0.21519
0.22785
0.24051
0.25316
0.26582
0.27848
0.29114
0.3038
0.31646
0.32911
0.34177
0.35443
0.36709
0.37975
0.39241
0.40506
0.41772
0.43038
0.44304
0.4557
0.46835
0.48101
0.49367
0.50633
0.51899
0.53165
0.5443
0.55696
0.56962
0.58228
0.59494
0.60759
0.62025
0.63291
0.64557
0.65823
0.67089
0.68354
0.6962
0.70886
0.72152
0.73418
0.74684
0.75949
0.77215
0.78481
0.79747
0.81013
0.82278
0.83544
0.8481
0.86076
0.87342
0.88608
0.89873
0.91139
0.92405
0.93671
0.94937
0.96203
0.97468
0.98734
1
)

80
(
0.767
0.757786206
0.747676905
0.7391853395
0.7319010172
0.7186816
0.7094671
0.70106232
0.69189874
0.68372178
0.673472348
0.665101452
0.655821014
0.646918842
0.6369433005
0.6269825647
0.618037722
0.6081058185
0.5991668791
0.5882409181
0.5793269437
0.5694039607
0.5599929722
0.5498129802
0.5396329857
0.5304549896
0.5202769924
0.5110989943
0.5009319958
0.4907549968
0.4815679976
0.4713909982
0.4612249986
0.452047999
0.4418819992
0.4316959994
0.4225199995
0.4123529996
0.4021769997
0.3930009998
0.3828249998
0.3726479999
0.3634819999
0.3533059999
0.3441189999
0.333953
0.323777
0.3146
0.304424
0.294247
0.2850808
0.2749043
0.2647178
0.2555512
0.2453847
0.2351981
0.2260216
0.215855
0.2066685
0.1965019
0.1863353
0.1771487
0.1669711
0.1568015
0.1476309
0.1374513
0.1272708
0.1181012
0.1079306
0.097751
0.0885704
0.0784008
0.0682302
0.0590466
0.048875
0.0397004
0.0295248
0.01935019
0.0101751
0
)

/*80*/
/*(*/
/*0.767*/
/*0.7574061097*/
/*0.7481253693*/
/*0.7412149913*/
/*0.7340667598*/
/*0.7206562*/
/*0.7108564*/
/*0.7014269*/
/*0.6931955*/
/*0.6839217*/
/*0.6740087*/
/*0.6649924*/
/*0.6559002*/
/*0.64709531*/
/*0.63616068*/
/*0.62723715*/
/*0.6183139*/
/*0.60840272*/
/*0.59849214*/
/*0.58858254*/
/*0.57968517*/
/*0.56976823*/
/*0.559141855*/
/*0.549966148*/
/*0.539801182*/
/*0.530637016*/
/*0.520473692*/
/*0.510320242*/
/*0.501157693*/
/*0.490985064*/
/*0.48083237*/
/*0.471679624*/
/*0.461507836*/
/*0.4513560121*/
/*0.4421941598*/
/*0.4320212837*/
/*0.4218793878*/
/*0.4127174756*/
/*0.4025455497*/
/*0.3923936123*/
/*0.3832306653*/
/*0.3730687103*/
/*0.3629167484*/
/*0.3537547808*/
/*0.3436018084*/
/*0.3334398319*/
/*0.324276852*/
/*0.3141248692*/
/*0.3039518839*/
/*0.2947898966*/
/*0.2846469075*/
/*0.2744749169*/
/*0.2653119252*/
/*0.2551594323*/
/*0.2449968386*/
/*0.2358342442*/
/*0.2256815491*/
/*0.2155189534*/
/*0.2063462573*/
/*0.1962035608*/
/*0.186040964*/
/*0.1768782669*/
/*0.1667155696*/
/*0.1575559721*/
/*0.1474062744*/
/*0.1372375765*/
/*0.1280778785*/
/*0.1179191805*/
/*0.1077604823*/
/*0.098600884*/
/*0.0884421858*/
/*0.0782724874*/
/*0.069113789*/
/*0.0589630906*/
/*0.0487993922*/
/*0.0396396938*/
/*0.0294790953*/
/*0.0193203669*/
/*0.0101600884*/
/*0*/
/*)*/

/*80*/
/*(*/
/*0.767*/
/*0.7582140816*/
/*0.7500029867*/
/*0.7433315452*/
/*0.7354838*/
/*0.7221611*/
/*0.713656*/
/*0.703869*/
/*0.69441*/
/*0.685706*/
/*0.675855*/
/*0.66689*/
/*0.6568256*/
/*0.647685*/
/*0.6382698*/
/*0.6284105*/
/*0.6185524*/
/*0.6096907*/
/*0.5988383*/
/*0.5899671*/
/*0.5801103*/
/*0.5702586*/
/*0.5606524*/
/*0.5505226*/
/*0.5404002*/
/*0.5312766*/
/*0.52113957*/
/*0.51102241*/
/*0.50189349*/
/*0.49178311*/
/*0.48166149*/
/*0.47153982*/
/*0.46242627*/
/*0.45230297*/
/*0.44218903*/
/*0.43308456*/
/*0.42295962*/
/*0.41283429*/
/*0.40272863*/
/*0.39361268*/
/*0.38349648*/
/*0.37337908*/
/*0.3642625*/
/*0.35414577*/
/*0.34402892*/
/*0.33392096*/
/*0.3247939*/
/*0.31468677*/
/*0.30456857*/
/*0.29446132*/
/*0.28534302*/
/*0.27522569*/
/*0.26511732*/
/*0.25599992*/
/*0.24588151*/
/*0.23576407*/
/*0.22565562*/
/*0.21652816*/
/*0.20642969*/
/*0.196302204*/
/*0.187183816*/
/*0.177075822*/
/*0.166957723*/
/*0.156839621*/
/*0.147731515*/
/*0.137603408*/
/*0.127495298*/
/*0.118382286*/
/*0.108270174*/
/*0.09815706*/
/*0.088034945*/
/*0.07892183*/
/*0.068804715*/
/*0.058695599*/
/*0.049576482*/
/*0.039460466*/
/*0.02934635*/
/*0.0192302331*/
/*0.0101157065*/
/*0*/
/*)*/

/*80*/
/*(*/
/*0.767*/
/*0.758268677*/
/*0.750084587*/
/*0.74326943*/
/*0.73509526*/
/*0.7235205*/
/*0.714334*/
/*0.704882*/
/*0.696029*/
/*0.686722*/
/*0.677158*/
/*0.667403*/
/*0.658515*/
/*0.648494*/
/*0.639608*/
/*0.628823*/
/*0.620036*/
/*0.609235*/
/*0.60044*/
/*0.590636*/
/*0.580829*/
/*0.571021*/
/*0.560948*/
/*0.55183*/
/*0.541721*/
/*0.5316222*/
/*0.5215146*/
/*0.5124201*/
/*0.5023188*/
/*0.4922128*/
/*0.482122*/
/*0.4730369*/
/*0.4629393*/
/*0.4528586*/
/*0.4427753*/
/*0.4336898*/
/*0.4236024*/
/*0.4135133*/
/*0.403423*/
/*0.3943414*/
/*0.3842489*/
/*0.3741765*/
/*0.3640825*/
/*0.3540078*/
/*0.3449127*/
/*0.3348371*/
/*0.3247512*/
/*0.314666*/
/*0.3055896*/
/*0.295503*/
/*0.2854162*/
/*0.2753393*/
/*0.2662523*/
/*0.2561651*/
/*0.2460879*/
/*0.2360007*/
/*0.2269134*/
/*0.2168361*/
/*0.2067487*/
/*0.1966713*/
/*0.1865829*/
/*0.1774955*/
/*0.167418*/
/*0.1573308*/
/*0.1472533*/
/*0.1381658*/
/*0.1280882*/
/*0.1180006*/
/*0.1079132*/
/*0.0988336*/
/*0.088753*/
/*0.07866243*/
/*0.06858285*/
/*0.05950237*/
/*0.04941679*/
/*0.03933321*/
/*0.02924964*/
/*0.02016716*/
/*0.01008336*/
/*0*/
/*)*/

/*80*/
/*(*/
/*0.767*/
/*0.75856906*/
/*0.74963476*/
/*0.74281505*/
/*0.7344368*/
/*0.723534*/
/*0.71374*/
/*0.70582*/
/*0.696329*/
/*0.687296*/
/*0.677947*/
/*0.668358*/
/*0.658612*/
/*0.648728*/
/*0.639366*/
/*0.629623*/
/*0.620887*/
/*0.610119*/
/*0.600354*/
/*0.591567*/
/*0.580787*/
/*0.571997*/
/*0.561714*/
/*0.551601*/
/*0.542492*/
/*0.532377*/
/*0.522279*/
/*0.512182*/
/*0.503085*/
/*0.493*/
/*0.482909*/
/*0.472812*/
/*0.463739*/
/*0.453653*/
/*0.443564*/
/*0.433481*/
/*0.423395*/
/*0.414317*/
/*0.404237*/
/*0.394156*/
/*0.384073*/
/*0.374998*/
/*0.3649226*/
/*0.3548371*/
/*0.34476*/
/*0.3346821*/
/*0.3255938*/
/*0.315525*/
/*0.3054459*/
/*0.2953575*/
/*0.2862778*/
/*0.2762079*/
/*0.2661178*/
/*0.2560476*/
/*0.2459773*/
/*0.2368869*/
/*0.2268064*/
/*0.2167358*/
/*0.2066552*/
/*0.1975646*/
/*0.1875039*/
/*0.1774242*/
/*0.1673334*/
/*0.1572627*/
/*0.1481815*/
/*0.1381008*/
/*0.1280301*/
/*0.1179493*/
/*0.1088585*/
/*0.0987878*/
/*0.088709*/
/*0.0786272*/
/*0.0685554*/
/*0.0594727*/
/*0.0493939*/
/*0.0393141*/
/*0.02923631*/
/*0.02015661*/
/*0.01007878*/
/*0*/
/*)*/

/*80*/
/*(*/
/*0.767*/
/*0.75845115*/
/*0.7493252*/
/*0.7417974*/
/*0.7330911*/
/*0.722585*/
/*0.714135*/
/*0.704885*/
/*0.696086*/
/*0.687594*/
/*0.677679*/
/*0.668477*/
/*0.659024*/
/*0.64936*/
/*0.640377*/
/*0.630725*/
/*0.621052*/
/*0.611347*/
/*0.601628*/
/*0.591885*/
/*0.581139*/
/*0.57236*/
/*0.562233*/
/*0.553095*/
/*0.542969*/
/*0.532852*/
/*0.522725*/
/*0.513622*/
/*0.503523*/
/*0.493423*/
/*0.483323*/
/*0.474223*/
/*0.464116*/
/*0.454032*/
/*0.443942*/
/*0.434848*/
/*0.424758*/
/*0.414666*/
/*0.40458*/
/*0.394492*/
/*0.385402*/
/*0.37532*/
/*0.365215*/
/*0.35513*/
/*0.346043*/
/*0.335946*/
/*0.325867*/
/*0.315777*/
/*0.305697*/
/*0.296607*/
/*0.286527*/
/*0.276435*/
/*0.266353*/
/*0.256262*/
/*0.24718*/
/*0.237087*/
/*0.227005*/
/*0.216923*/
/*0.20783*/
/*0.197748*/
/*0.187655*/
/*0.177572*/
/*0.167489*/
/*0.158397*/
/*0.1483136*/
/*0.1382208*/
/*0.1281279*/
/*0.118045*/
/*0.1089561*/
/*0.0988732*/
/*0.0887793*/
/*0.0786954*/
/*0.0696124*/
/*0.0595185*/
/*0.0494346*/
/*0.0393477*/
/*0.0292607*/
/*0.0201749*/
/*0.01008733*/
/*0*/
/*)*/

/*80*/
/*(*/
/*0.767*/
/*0.75734*/
/*0.74768*/
/*0.73803*/
/*0.72837*/
/*0.71871*/
/*0.70905*/
/*0.69939*/
/*0.69*/
/*0.68*/
/*0.669*/
/*0.66*/
/*0.65*/
/*0.64*/
/*0.631*/
/*0.621*/
/*0.611*/
/*0.602*/
/*0.592*/
/*0.582*/
/*0.573*/
/*0.563*/
/*0.554*/
/*0.544*/
/*0.534*/
/*0.525*/
/*0.515*/
/*0.505*/
/*0.496*/
/*0.486*/
/*0.475*/
/*0.466*/
/*0.456*/
/*0.446*/
/*0.437*/
/*0.427*/
/*0.417*/
/*0.408*/
/*0.398*/
/*0.388*/
/*0.379*/
/*0.369*/
/*0.359*/
/*0.35*/
/*0.34*/
/*0.33*/
/*0.32067*/
/*0.31062*/
/*0.30057*/
/*0.29152*/
/*0.28147*/
/*0.27142*/
/*0.26237*/
/*0.25232*/
/*0.24227*/
/*0.23322*/
/*0.22316*/
/*0.21311*/
/*0.20406*/
/*0.19401*/
/*0.18496*/
/*0.17491*/
/*0.16486*/
/*0.15581*/
/*0.14576*/
/*0.13571*/
/*0.12666*/
/*0.11661*/
/*0.10656*/
/*0.09751*/
/*0.08746*/
/*0.07741*/
/*0.06835*/
/*0.0583*/
/*0.04825*/
/*0.0392*/
/*0.029152*/
/*0.019101*/
/*0.010051*/
/*0*/
/*)*/
);
// ************************************************************************* //
