/*--------------------------------*- C++ -*----------------------------------*\
| =========                 |                                                 |
| \\      /  F ield         | OpenFOAM: The Open Source CFD Toolbox           |
|  \\    /   O peration     | Version:  1.0                                   |
|   \\  /    A nd           | Web:      http://www.openfoam.org               |
|    \\/     M anipulation  |                                                 |
\*---------------------------------------------------------------------------*/

FoamFile
{
    version         2.0;
    format          ascii;

    root            "";
    case            "";
    instance        "";
    local           "";

    class           dictionary;
    object          ThermoPopeCloud;
}

// * * * * * * * * * * * * * * * * * * * * * * * * * * * * * * * * * * * * * //
fileName   "CO";
fields 
(
    {
        N 79;	
	    max 1;
	    min 0;
	    name f;
	}
);

output
( 
    {
        name f;
    }
    {
        name CO0;
	}
/*    {*/
/*        name CO1;*/
/*    }*/
/*    {*/
/*        name CO;*/
/*    }*/
/*    {*/
/*        name CO3;*/
/*    }*/
/*    {*/
/*        name CO4;*/
/*    }*/
/*    {*/
/*        name CO5;*/
/*    }*/
/*    {*/
/*        name CO6;*/
/*    }*/
);

values
(
80
(
0
0.01266
0.02532
0.03797
0.05063
0.06329
0.07595
0.08861
0.10127
0.11392
0.12658
0.13924
0.1519
0.16456
0.17722
0.18987
0.20253
0.21519
0.22785
0.24051
0.25316
0.26582
0.27848
0.29114
0.3038
0.31646
0.32911
0.34177
0.35443
0.36709
0.37975
0.39241
0.40506
0.41772
0.43038
0.44304
0.4557
0.46835
0.48101
0.49367
0.50633
0.51899
0.53165
0.5443
0.55696
0.56962
0.58228
0.59494
0.60759
0.62025
0.63291
0.64557
0.65823
0.67089
0.68354
0.6962
0.70886
0.72152
0.73418
0.74684
0.75949
0.77215
0.78481
0.79747
0.81013
0.82278
0.83544
0.8481
0.86076
0.87342
0.88608
0.89873
0.91139
0.92405
0.93671
0.94937
0.96203
0.97468
0.98734
1
)

80
(
0
1.03E-04
2.31E-04
9.89E-04
8.26E-03
3.88E-02
4.07E-02
4.08E-02
4.05E-02
4.00E-02
3.94E-02
3.88E-02
3.82E-02
3.76E-02
3.70E-02
3.64E-02
3.58E-02
3.52E-02
3.46E-02
3.41E-02
3.35E-02
3.29E-02
3.23E-02
3.18E-02
3.12E-02
3.06E-02
3.00E-02
2.95E-02
2.89E-02
2.83E-02
2.78E-02
2.72E-02
2.66E-02
2.61E-02
2.55E-02
2.49E-02
2.44E-02
2.38E-02
2.32E-02
2.27E-02
2.21E-02
2.15E-02
2.10E-02
2.04E-02
1.98E-02
1.93E-02
1.87E-02
1.81E-02
1.76E-02
1.70E-02
1.64E-02
1.59E-02
1.53E-02
1.47E-02
1.42E-02
1.36E-02
1.30E-02
1.25E-02
1.19E-02
1.13E-02
1.08E-02
1.02E-02
9.63E-03
9.06E-03
8.50E-03
7.93E-03
7.37E-03
6.80E-03
6.23E-03
5.67E-03
5.10E-03
4.53E-03
3.97E-03
3.40E-03
2.83E-03
2.27E-03
1.70E-03
1.13E-03
5.67E-04
0
)

/*80*/
/*(*/
/*0*/
/*9.94E-04*/
/*2.08E-03*/
/*4.74E-03*/
/*1.55E-02*/
/*4.08E-02*/
/*4.40E-02*/
/*4.43E-02*/
/*4.40E-02*/
/*4.35E-02*/
/*4.30E-02*/
/*4.24E-02*/
/*4.18E-02*/
/*4.12E-02*/
/*4.06E-02*/
/*3.99E-02*/
/*3.93E-02*/
/*3.87E-02*/
/*3.80E-02*/
/*3.74E-02*/
/*3.68E-02*/
/*3.62E-02*/
/*3.55E-02*/
/*3.49E-02*/
/*3.43E-02*/
/*3.37E-02*/
/*3.31E-02*/
/*3.24E-02*/
/*3.18E-02*/
/*3.12E-02*/
/*3.06E-02*/
/*2.99E-02*/
/*2.93E-02*/
/*2.87E-02*/
/*2.81E-02*/
/*2.74E-02*/
/*2.68E-02*/
/*2.62E-02*/
/*2.56E-02*/
/*2.49E-02*/
/*2.43E-02*/
/*2.37E-02*/
/*2.31E-02*/
/*2.25E-02*/
/*2.18E-02*/
/*2.12E-02*/
/*2.06E-02*/
/*2.00E-02*/
/*1.93E-02*/
/*1.87E-02*/
/*1.81E-02*/
/*1.75E-02*/
/*1.68E-02*/
/*1.62E-02*/
/*1.56E-02*/
/*1.50E-02*/
/*1.43E-02*/
/*1.37E-02*/
/*1.31E-02*/
/*1.25E-02*/
/*1.19E-02*/
/*1.12E-02*/
/*1.06E-02*/
/*9.98E-03*/
/*9.35E-03*/
/*8.73E-03*/
/*8.11E-03*/
/*7.48E-03*/
/*6.86E-03*/
/*6.24E-03*/
/*5.61E-03*/
/*4.99E-03*/
/*4.37E-03*/
/*3.74E-03*/
/*3.12E-03*/
/*2.49E-03*/
/*1.87E-03*/
/*1.25E-03*/
/*6.24E-04*/
/*0*/
/*)*/

/*80*/
/*(*/
/*0*/
/*4.77E-03*/
/*9.71E-03*/
/*1.61E-02*/
/*2.77E-02*/
/*4.67E-02*/
/*5.26E-02*/
/*5.35E-02*/
/*5.36E-02*/
/*5.34E-02*/
/*5.30E-02*/
/*5.24E-02*/
/*5.18E-02*/
/*5.12E-02*/
/*5.05E-02*/
/*4.98E-02*/
/*4.91E-02*/
/*4.84E-02*/
/*4.77E-02*/
/*4.69E-02*/
/*4.62E-02*/
/*4.54E-02*/
/*4.46E-02*/
/*4.39E-02*/
/*4.31E-02*/
/*4.23E-02*/
/*4.16E-02*/
/*4.08E-02*/
/*4.00E-02*/
/*3.92E-02*/
/*3.85E-02*/
/*3.77E-02*/
/*3.69E-02*/
/*3.61E-02*/
/*3.53E-02*/
/*3.45E-02*/
/*3.38E-02*/
/*3.30E-02*/
/*3.22E-02*/
/*3.14E-02*/
/*3.06E-02*/
/*2.98E-02*/
/*2.91E-02*/
/*2.83E-02*/
/*2.75E-02*/
/*2.67E-02*/
/*2.59E-02*/
/*2.51E-02*/
/*2.44E-02*/
/*2.36E-02*/
/*2.28E-02*/
/*2.20E-02*/
/*2.12E-02*/
/*2.04E-02*/
/*1.96E-02*/
/*1.89E-02*/
/*1.81E-02*/
/*1.73E-02*/
/*1.65E-02*/
/*1.57E-02*/
/*1.49E-02*/
/*1.41E-02*/
/*1.34E-02*/
/*1.26E-02*/
/*1.18E-02*/
/*1.10E-02*/
/*1.02E-02*/
/*9.43E-03*/
/*8.64E-03*/
/*7.85E-03*/
/*7.07E-03*/
/*6.28E-03*/
/*5.50E-03*/
/*4.71E-03*/
/*3.93E-03*/
/*3.14E-03*/
/*2.36E-03*/
/*1.57E-03*/
/*7.85E-04*/
/*0*/
/*)*/

/*80*/
/*(*/
/*0*/
/*8.73E-03*/
/*1.76E-02*/
/*2.74E-02*/
/*4.02E-02*/
/*5.59E-02*/
/*6.25E-02*/
/*6.41E-02*/
/*6.45E-02*/
/*6.45E-02*/
/*6.43E-02*/
/*6.38E-02*/
/*6.33E-02*/
/*6.27E-02*/
/*6.20E-02*/
/*6.13E-02*/
/*6.05E-02*/
/*5.97E-02*/
/*5.88E-02*/
/*5.80E-02*/
/*5.71E-02*/
/*5.62E-02*/
/*5.53E-02*/
/*5.44E-02*/
/*5.35E-02*/
/*5.25E-02*/
/*5.16E-02*/
/*5.06E-02*/
/*4.97E-02*/
/*4.87E-02*/
/*4.78E-02*/
/*4.68E-02*/
/*4.59E-02*/
/*4.49E-02*/
/*4.39E-02*/
/*4.30E-02*/
/*4.20E-02*/
/*4.10E-02*/
/*4.00E-02*/
/*3.91E-02*/
/*3.81E-02*/
/*3.71E-02*/
/*3.62E-02*/
/*3.52E-02*/
/*3.42E-02*/
/*3.32E-02*/
/*3.22E-02*/
/*3.13E-02*/
/*3.03E-02*/
/*2.93E-02*/
/*2.83E-02*/
/*2.74E-02*/
/*2.64E-02*/
/*2.54E-02*/
/*2.44E-02*/
/*2.35E-02*/
/*2.25E-02*/
/*2.15E-02*/
/*2.05E-02*/
/*1.95E-02*/
/*1.86E-02*/
/*1.76E-02*/
/*1.66E-02*/
/*1.56E-02*/
/*1.47E-02*/
/*1.37E-02*/
/*1.27E-02*/
/*1.17E-02*/
/*1.08E-02*/
/*9.77E-03*/
/*8.80E-03*/
/*7.82E-03*/
/*6.84E-03*/
/*5.86E-03*/
/*4.89E-03*/
/*3.91E-03*/
/*2.93E-03*/
/*1.95E-03*/
/*9.77E-04*/
/*0*/
/*)*/

/*80*/
/*(*/
/*0*/
/*1.03E-02*/
/*2.08E-02*/
/*3.21E-02*/
/*4.55E-02*/
/*6.02E-02*/
/*6.67E-02*/
/*6.85E-02*/
/*6.91E-02*/
/*6.92E-02*/
/*6.91E-02*/
/*6.87E-02*/
/*6.82E-02*/
/*6.76E-02*/
/*6.70E-02*/
/*6.62E-02*/
/*6.54E-02*/
/*6.46E-02*/
/*6.37E-02*/
/*6.28E-02*/
/*6.19E-02*/
/*6.09E-02*/
/*6.00E-02*/
/*5.90E-02*/
/*5.80E-02*/
/*5.70E-02*/
/*5.60E-02*/
/*5.50E-02*/
/*5.40E-02*/
/*5.29E-02*/
/*5.19E-02*/
/*5.09E-02*/
/*4.98E-02*/
/*4.88E-02*/
/*4.77E-02*/
/*4.67E-02*/
/*4.56E-02*/
/*4.46E-02*/
/*4.35E-02*/
/*4.24E-02*/
/*4.14E-02*/
/*4.03E-02*/
/*3.93E-02*/
/*3.82E-02*/
/*3.72E-02*/
/*3.61E-02*/
/*3.50E-02*/
/*3.40E-02*/
/*3.29E-02*/
/*3.19E-02*/
/*3.08E-02*/
/*2.97E-02*/
/*2.87E-02*/
/*2.76E-02*/
/*2.65E-02*/
/*2.55E-02*/
/*2.44E-02*/
/*2.34E-02*/
/*2.23E-02*/
/*2.12E-02*/
/*2.02E-02*/
/*1.91E-02*/
/*1.81E-02*/
/*1.70E-02*/
/*1.59E-02*/
/*1.49E-02*/
/*1.38E-02*/
/*1.27E-02*/
/*1.17E-02*/
/*1.06E-02*/
/*9.56E-03*/
/*8.49E-03*/
/*7.43E-03*/
/*6.37E-03*/
/*5.31E-03*/
/*4.25E-03*/
/*3.19E-03*/
/*2.12E-03*/
/*1.06E-03*/
/*0*/
/*)*/

/*80*/
/*(*/
/*0*/
/*1.24E-02*/
/*2.50E-02*/
/*3.81E-02*/
/*5.23E-02*/
/*6.54E-02*/
/*7.13E-02*/
/*7.34E-02*/
/*7.44E-02*/
/*7.48E-02*/
/*7.48E-02*/
/*7.47E-02*/
/*7.43E-02*/
/*7.38E-02*/
/*7.32E-02*/
/*7.24E-02*/
/*7.16E-02*/
/*7.08E-02*/
/*6.99E-02*/
/*6.90E-02*/
/*6.80E-02*/
/*6.70E-02*/
/*6.59E-02*/
/*6.49E-02*/
/*6.38E-02*/
/*6.27E-02*/
/*6.16E-02*/
/*6.05E-02*/
/*5.94E-02*/
/*5.83E-02*/
/*5.71E-02*/
/*5.60E-02*/
/*5.49E-02*/
/*5.37E-02*/
/*5.26E-02*/
/*5.14E-02*/
/*5.03E-02*/
/*4.91E-02*/
/*4.79E-02*/
/*4.68E-02*/
/*4.56E-02*/
/*4.44E-02*/
/*4.33E-02*/
/*4.21E-02*/
/*4.09E-02*/
/*3.98E-02*/
/*3.86E-02*/
/*3.74E-02*/
/*3.63E-02*/
/*3.51E-02*/
/*3.39E-02*/
/*3.28E-02*/
/*3.16E-02*/
/*3.04E-02*/
/*2.93E-02*/
/*2.81E-02*/
/*2.69E-02*/
/*2.57E-02*/
/*2.46E-02*/
/*2.34E-02*/
/*2.22E-02*/
/*2.11E-02*/
/*1.99E-02*/
/*1.87E-02*/
/*1.76E-02*/
/*1.64E-02*/
/*1.52E-02*/
/*1.40E-02*/
/*1.29E-02*/
/*1.17E-02*/
/*1.05E-02*/
/*9.36E-03*/
/*8.19E-03*/
/*7.02E-03*/
/*5.85E-03*/
/*4.68E-03*/
/*3.51E-03*/
/*2.34E-03*/
/*1.17E-03*/
/*0*/
/*)*/

/*80*/
/*(*/
/*0*/
/*0*/
/*0*/
/*0*/
/*0*/
/*0*/
/*0*/
/*0*/
/*0*/
/*0*/
/*0*/
/*0*/
/*0*/
/*0*/
/*0*/
/*0*/
/*0*/
/*0*/
/*0*/
/*0*/
/*0*/
/*0*/
/*0*/
/*0*/
/*0*/
/*0*/
/*0*/
/*0*/
/*0*/
/*0*/
/*0*/
/*0*/
/*0*/
/*0*/
/*0*/
/*0*/
/*0*/
/*0*/
/*0*/
/*0*/
/*0*/
/*0*/
/*0*/
/*0*/
/*0*/
/*0*/
/*0*/
/*0*/
/*0*/
/*0*/
/*0*/
/*0*/
/*0*/
/*0*/
/*0*/
/*0*/
/*0*/
/*0*/
/*0*/
/*0*/
/*0*/
/*0*/
/*0*/
/*0*/
/*0*/
/*0*/
/*0*/
/*0*/
/*0*/
/*0*/
/*0*/
/*0*/
/*0*/
/*0*/
/*0*/
/*0*/
/*0*/
/*0*/
/*0*/
/*0*/
/*)*/
);
// ************************************************************************* //
