/*--------------------------------*- C++ -*----------------------------------*\
| =========                 |                                                 |
| \\      /  F ield         | OpenFOAM: The Open Source CFD Toolbox           |
|  \\    /   O peration     | Version:  1.0                                   |
|   \\  /    A nd           | Web:      http://www.openfoam.org               |
|    \\/     M anipulation  |                                                 |
\*---------------------------------------------------------------------------*/

FoamFile
{
    version         2.0;
    format          ascii;

    root            "";
    case            "";
    instance        "";
    local           "";

    class           dictionary;
    object          ThermoPopeCloud;
}

// * * * * * * * * * * * * * * * * * * * * * * * * * * * * * * * * * * * * * //
fileName   "CH4";
fields 
(
    {
        N 79;	
	    max 1;
	    min 0;
	    name f;
	}
);

output
( 
    {
        name f;
    }
    {
        name CH40;
	}
/*    {*/
/*        name CH41;*/
/*    }*/
/*    {*/
/*        name CH42;*/
/*    }*/
/*    {*/
/*        name CH43;*/
/*    }*/
/*    {*/
/*        name CH44;*/
/*    }*/
/*    {*/
/*        name CH45;*/
/*    }*/
/*    {*/
/*        name CH46;*/
/*    }*/
);

values
(
80
(
0
0.01266
0.02532
0.03797
0.05063
0.06329
0.07595
0.08861
0.10127
0.11392
0.12658
0.13924
0.1519
0.16456
0.17722
0.18987
0.20253
0.21519
0.22785
0.24051
0.25316
0.26582
0.27848
0.29114
0.3038
0.31646
0.32911
0.34177
0.35443
0.36709
0.37975
0.39241
0.40506
0.41772
0.43038
0.44304
0.4557
0.46835
0.48101
0.49367
0.50633
0.51899
0.53165
0.5443
0.55696
0.56962
0.58228
0.59494
0.60759
0.62025
0.63291
0.64557
0.65823
0.67089
0.68354
0.6962
0.70886
0.72152
0.73418
0.74684
0.75949
0.77215
0.78481
0.79747
0.81013
0.82278
0.83544
0.8481
0.86076
0.87342
0.88608
0.89873
0.91139
0.92405
0.93671
0.94937
0.96203
0.97468
0.98734
1
)

80
(
0
4.97E-12
1.55E-11
5.49E-10
1.83E-07
2.09E-04
1.19E-02
2.42E-02
3.67E-02
4.93E-02
6.21E-02
7.50E-02
8.81E-02
0.101
0.115
0.128
0.141
0.155
0.168
0.182
0.195
0.209
0.222
0.236
0.25
0.263
0.277
0.29
0.304
0.318
0.331
0.345
0.359
0.372
0.386
0.4
0.413
0.427
0.441
0.454
0.468
0.482
0.495
0.509
0.522
0.536
0.55
0.563
0.577
0.591
0.604
0.618
0.632
0.645
0.659
0.673
0.686
0.7
0.713
0.727
0.741
0.754
0.768
0.782
0.795
0.809
0.823
0.836
0.85
0.864
0.877
0.891
0.905
0.918
0.932
0.945
0.959
0.973
0.986
1
)

/*80*/
/*(*/
/*0*/
/*2.71E-10*/
/*6.67E-10*/
/*8.74E-09*/
/*7.40E-07*/
/*1.46E-04*/
/*9.99E-03*/
/*2.25E-02*/
/*3.52E-02*/
/*4.80E-02*/
/*6.10E-02*/
/*7.40E-02*/
/*8.71E-02*/
/*0.1*/
/*0.114*/
/*0.127*/
/*0.14*/
/*0.154*/
/*0.167*/
/*0.181*/
/*0.194*/
/*0.208*/
/*0.222*/
/*0.235*/
/*0.249*/
/*0.262*/
/*0.276*/
/*0.29*/
/*0.303*/
/*0.317*/
/*0.331*/
/*0.344*/
/*0.358*/
/*0.372*/
/*0.385*/
/*0.399*/
/*0.413*/
/*0.426*/
/*0.44*/
/*0.454*/
/*0.467*/
/*0.481*/
/*0.495*/
/*0.508*/
/*0.522*/
/*0.536*/
/*0.549*/
/*0.563*/
/*0.577*/
/*0.59*/
/*0.604*/
/*0.618*/
/*0.631*/
/*0.645*/
/*0.659*/
/*0.672*/
/*0.686*/
/*0.7*/
/*0.713*/
/*0.727*/
/*0.741*/
/*0.754*/
/*0.768*/
/*0.781*/
/*0.795*/
/*0.809*/
/*0.822*/
/*0.836*/
/*0.85*/
/*0.863*/
/*0.877*/
/*0.891*/
/*0.904*/
/*0.918*/
/*0.932*/
/*0.945*/
/*0.959*/
/*0.973*/
/*0.986*/
/*1*/
/*)*/

/*80*/
/*(*/
/*0*/
/*9.84E-08*/
/*2.13E-07*/
/*8.55E-07*/
/*1.24E-05*/
/*3.47E-04*/
/*6.66E-03*/
/*1.85E-02*/
/*3.11E-02*/
/*4.39E-02*/
/*5.69E-02*/
/*7.00E-02*/
/*8.32E-02*/
/*9.65E-02*/
/*0.11*/
/*0.123*/
/*0.137*/
/*0.15*/
/*0.164*/
/*0.177*/
/*0.191*/
/*0.205*/
/*0.218*/
/*0.232*/
/*0.246*/
/*0.259*/
/*0.273*/
/*0.287*/
/*0.3*/
/*0.314*/
/*0.328*/
/*0.342*/
/*0.355*/
/*0.369*/
/*0.383*/
/*0.396*/
/*0.41*/
/*0.424*/
/*0.438*/
/*0.451*/
/*0.465*/
/*0.479*/
/*0.492*/
/*0.506*/
/*0.52*/
/*0.534*/
/*0.547*/
/*0.561*/
/*0.575*/
/*0.589*/
/*0.602*/
/*0.616*/
/*0.63*/
/*0.643*/
/*0.657*/
/*0.671*/
/*0.685*/
/*0.698*/
/*0.712*/
/*0.726*/
/*0.739*/
/*0.753*/
/*0.767*/
/*0.781*/
/*0.794*/
/*0.808*/
/*0.822*/
/*0.835*/
/*0.849*/
/*0.863*/
/*0.877*/
/*0.89*/
/*0.904*/
/*0.918*/
/*0.931*/
/*0.945*/
/*0.959*/
/*0.973*/
/*0.986*/
/*1*/
/*)*/

/*80*/
/*(*/
/*0*/
/*3.52E-06*/
/*7.31E-06*/
/*1.69E-05*/
/*8.77E-05*/
/*8.12E-04*/
/*6.11E-03*/
/*1.68E-02*/
/*2.90E-02*/
/*4.16E-02*/
/*5.45E-02*/
/*6.75E-02*/
/*8.06E-02*/
/*9.39E-02*/
/*0.107*/
/*0.121*/
/*0.134*/
/*0.148*/
/*0.161*/
/*0.175*/
/*0.188*/
/*0.202*/
/*0.216*/
/*0.229*/
/*0.243*/
/*0.257*/
/*0.271*/
/*0.284*/
/*0.298*/
/*0.312*/
/*0.326*/
/*0.339*/
/*0.353*/
/*0.367*/
/*0.381*/
/*0.394*/
/*0.408*/
/*0.422*/
/*0.436*/
/*0.449*/
/*0.463*/
/*0.477*/
/*0.491*/
/*0.505*/
/*0.518*/
/*0.532*/
/*0.546*/
/*0.56*/
/*0.573*/
/*0.587*/
/*0.601*/
/*0.615*/
/*0.628*/
/*0.642*/
/*0.656*/
/*0.67*/
/*0.683*/
/*0.697*/
/*0.711*/
/*0.725*/
/*0.739*/
/*0.752*/
/*0.766*/
/*0.78*/
/*0.794*/
/*0.807*/
/*0.821*/
/*0.835*/
/*0.849*/
/*0.862*/
/*0.876*/
/*0.89*/
/*0.904*/
/*0.917*/
/*0.931*/
/*0.945*/
/*0.959*/
/*0.972*/
/*0.986*/
/*1*/
/*)*/

/*80*/
/*(*/
/*0*/
/*1.18E-05*/
/*2.43E-05*/
/*4.96E-05*/
/*1.90E-04*/
/*1.23E-03*/
/*6.68E-03*/
/*1.70E-02*/
/*2.90E-02*/
/*4.14E-02*/
/*5.42E-02*/
/*6.71E-02*/
/*8.02E-02*/
/*9.34E-02*/
/*0.107*/
/*0.12*/
/*0.133*/
/*0.147*/
/*0.161*/
/*0.174*/
/*0.188*/
/*0.201*/
/*0.215*/
/*0.229*/
/*0.242*/
/*0.256*/
/*0.27*/
/*0.284*/
/*0.297*/
/*0.311*/
/*0.325*/
/*0.339*/
/*0.352*/
/*0.366*/
/*0.38*/
/*0.394*/
/*0.408*/
/*0.421*/
/*0.435*/
/*0.449*/
/*0.463*/
/*0.476*/
/*0.49*/
/*0.504*/
/*0.518*/
/*0.532*/
/*0.545*/
/*0.559*/
/*0.573*/
/*0.587*/
/*0.6*/
/*0.614*/
/*0.628*/
/*0.642*/
/*0.656*/
/*0.669*/
/*0.683*/
/*0.697*/
/*0.711*/
/*0.724*/
/*0.738*/
/*0.752*/
/*0.766*/
/*0.78*/
/*0.793*/
/*0.807*/
/*0.821*/
/*0.835*/
/*0.848*/
/*0.862*/
/*0.876*/
/*0.89*/
/*0.904*/
/*0.917*/
/*0.931*/
/*0.945*/
/*0.959*/
/*0.972*/
/*0.986*/
/*1*/
/*)*/

/*80*/
/*(*/
/*0*/
/*5.49E-05*/
/*1.12E-04*/
/*2.03E-04*/
/*5.63E-04*/
/*2.39E-03*/
/*8.56E-03*/
/*1.87E-02*/
/*3.02E-02*/
/*4.24E-02*/
/*5.49E-02*/
/*6.77E-02*/
/*8.06E-02*/
/*9.36E-02*/
/*0.107*/
/*0.12*/
/*0.133*/
/*0.147*/
/*0.16*/
/*0.174*/
/*0.188*/
/*0.201*/
/*0.215*/
/*0.228*/
/*0.242*/
/*0.256*/
/*0.27*/
/*0.283*/
/*0.297*/
/*0.311*/
/*0.325*/
/*0.338*/
/*0.352*/
/*0.366*/
/*0.38*/
/*0.393*/
/*0.407*/
/*0.421*/
/*0.435*/
/*0.449*/
/*0.462*/
/*0.476*/
/*0.49*/
/*0.504*/
/*0.517*/
/*0.531*/
/*0.545*/
/*0.559*/
/*0.573*/
/*0.586*/
/*0.6*/
/*0.614*/
/*0.628*/
/*0.642*/
/*0.655*/
/*0.669*/
/*0.683*/
/*0.697*/
/*0.71*/
/*0.724*/
/*0.738*/
/*0.752*/
/*0.766*/
/*0.779*/
/*0.793*/
/*0.807*/
/*0.821*/
/*0.835*/
/*0.848*/
/*0.862*/
/*0.876*/
/*0.89*/
/*0.903*/
/*0.917*/
/*0.931*/
/*0.945*/
/*0.959*/
/*0.972*/
/*0.986*/
/*1*/
/*)*/

/*80*/
/*(*/
/*0*/
/*1.27E-02*/
/*2.53E-02*/
/*3.80E-02*/
/*5.06E-02*/
/*6.33E-02*/
/*7.60E-02*/
/*8.86E-02*/
/*0.101*/
/*0.114*/
/*0.127*/
/*0.139*/
/*0.152*/
/*0.165*/
/*0.177*/
/*0.19*/
/*0.203*/
/*0.215*/
/*0.228*/
/*0.241*/
/*0.253*/
/*0.266*/
/*0.278*/
/*0.291*/
/*0.304*/
/*0.316*/
/*0.329*/
/*0.342*/
/*0.354*/
/*0.367*/
/*0.38*/
/*0.392*/
/*0.405*/
/*0.418*/
/*0.43*/
/*0.443*/
/*0.456*/
/*0.468*/
/*0.481*/
/*0.494*/
/*0.506*/
/*0.519*/
/*0.532*/
/*0.544*/
/*0.557*/
/*0.57*/
/*0.582*/
/*0.595*/
/*0.608*/
/*0.62*/
/*0.633*/
/*0.646*/
/*0.658*/
/*0.671*/
/*0.684*/
/*0.696*/
/*0.709*/
/*0.722*/
/*0.734*/
/*0.747*/
/*0.759*/
/*0.772*/
/*0.785*/
/*0.797*/
/*0.81*/
/*0.823*/
/*0.835*/
/*0.848*/
/*0.861*/
/*0.873*/
/*0.886*/
/*0.899*/
/*0.911*/
/*0.924*/
/*0.937*/
/*0.949*/
/*0.962*/
/*0.975*/
/*0.987*/
/*1*/
/*)*/
);
// ************************************************************************* //
