/*--------------------------------*- C++ -*----------------------------------*\
| =========                 |                                                 |
| \\      /  F ield         | OpenFOAM: The Open Source CFD Toolbox           |
|  \\    /   O peration     | Version:  1.0                                   |
|   \\  /    A nd           | Web:      http://www.openfoam.org               |
|    \\/     M anipulation  |                                                 |
\*---------------------------------------------------------------------------*/

FoamFile
{
    version         2.0;
    format          ascii;

    root            "";
    case            "";
    instance        "";
    local           "";

    class           dictionary;
    object          ThermoPopeCloud;
}

// * * * * * * * * * * * * * * * * * * * * * * * * * * * * * * * * * * * * * //
fileName   "CO2";
fields 
(
    {
        N 79;	
	    max 1;
	    min 0;
	    name f;
	}
);

output
( 
    {
        name f;
    }
    {
        name CO20;
	}
/*    {*/
/*        name CO21;*/
/*    }*/
/*    {*/
/*        name CO22;*/
/*    }*/
/*    {*/
/*        name CO23;*/
/*    }*/
/*    {*/
/*        name CO24;*/
/*    }*/
/*    {*/
/*        name CO25;*/
/*    }*/
/*    {*/
/*        name CO26;*/
/*    }*/
);

values
(
80
(
0
0.01266
0.02532
0.03797
0.05063
0.06329
0.07595
0.08861
0.10127
0.11392
0.12658
0.13924
0.1519
0.16456
0.17722
0.18987
0.20253
0.21519
0.22785
0.24051
0.25316
0.26582
0.27848
0.29114
0.3038
0.31646
0.32911
0.34177
0.35443
0.36709
0.37975
0.39241
0.40506
0.41772
0.43038
0.44304
0.4557
0.46835
0.48101
0.49367
0.50633
0.51899
0.53165
0.5443
0.55696
0.56962
0.58228
0.59494
0.60759
0.62025
0.63291
0.64557
0.65823
0.67089
0.68354
0.6962
0.70886
0.72152
0.73418
0.74684
0.75949
0.77215
0.78481
0.79747
0.81013
0.82278
0.83544
0.8481
0.86076
0.87342
0.88608
0.89873
0.91139
0.92405
0.93671
0.94937
0.96203
0.97468
0.98734
1
)

80
(
0
3.47E-02
6.93E-02
0.103
0.126
0.112
0.109
0.107
0.106
0.104
0.103
0.101
9.98E-02
9.84E-02
9.70E-02
9.56E-02
9.41E-02
9.27E-02
9.12E-02
8.97E-02
8.83E-02
8.68E-02
8.53E-02
8.38E-02
8.23E-02
8.08E-02
7.93E-02
7.79E-02
7.64E-02
7.49E-02
7.34E-02
7.19E-02
7.04E-02
6.89E-02
6.74E-02
6.59E-02
6.44E-02
6.29E-02
6.14E-02
5.99E-02
5.84E-02
5.69E-02
5.54E-02
5.39E-02
5.24E-02
5.09E-02
4.94E-02
4.79E-02
4.64E-02
4.49E-02
4.34E-02
4.19E-02
4.04E-02
3.89E-02
3.74E-02
3.59E-02
3.44E-02
3.29E-02
3.15E-02
3.00E-02
2.85E-02
2.70E-02
2.55E-02
2.40E-02
2.25E-02
2.10E-02
1.95E-02
1.80E-02
1.65E-02
1.50E-02
1.35E-02
1.20E-02
1.05E-02
8.98E-03
7.49E-03
5.99E-03
4.49E-03
3.00E-03
1.50E-03
0
)

/*80*/
/*(*/
/*0*/
/*3.33E-02*/
/*6.64E-02*/
/*9.70E-02*/
/*0.115*/
/*0.109*/
/*0.106*/
/*0.104*/
/*0.102*/
/*0.101*/
/*9.96E-02*/
/*9.82E-02*/
/*9.68E-02*/
/*9.53E-02*/
/*9.39E-02*/
/*9.25E-02*/
/*9.11E-02*/
/*8.96E-02*/
/*8.82E-02*/
/*8.68E-02*/
/*8.53E-02*/
/*8.39E-02*/
/*8.25E-02*/
/*8.10E-02*/
/*7.96E-02*/
/*7.81E-02*/
/*7.67E-02*/
/*7.52E-02*/
/*7.38E-02*/
/*7.24E-02*/
/*7.09E-02*/
/*6.95E-02*/
/*6.80E-02*/
/*6.66E-02*/
/*6.51E-02*/
/*6.37E-02*/
/*6.22E-02*/
/*6.08E-02*/
/*5.93E-02*/
/*5.79E-02*/
/*5.64E-02*/
/*5.50E-02*/
/*5.35E-02*/
/*5.21E-02*/
/*5.06E-02*/
/*4.92E-02*/
/*4.78E-02*/
/*4.63E-02*/
/*4.49E-02*/
/*4.34E-02*/
/*4.20E-02*/
/*4.05E-02*/
/*3.91E-02*/
/*3.76E-02*/
/*3.62E-02*/
/*3.47E-02*/
/*3.33E-02*/
/*3.18E-02*/
/*3.04E-02*/
/*2.89E-02*/
/*2.75E-02*/
/*2.61E-02*/
/*2.46E-02*/
/*2.32E-02*/
/*2.17E-02*/
/*2.03E-02*/
/*1.88E-02*/
/*1.74E-02*/
/*1.59E-02*/
/*1.45E-02*/
/*1.30E-02*/
/*1.16E-02*/
/*1.01E-02*/
/*8.68E-03*/
/*7.24E-03*/
/*5.79E-03*/
/*4.34E-03*/
/*2.89E-03*/
/*1.45E-03*/
/*0*/
/*)*/

/*80*/
/*(*/
/*0*/
/*2.73E-02*/
/*5.44E-02*/
/*7.92E-02*/
/*9.56E-02*/
/*9.80E-02*/
/*9.59E-02*/
/*9.44E-02*/
/*9.31E-02*/
/*9.18E-02*/
/*9.05E-02*/
/*8.92E-02*/
/*8.79E-02*/
/*8.66E-02*/
/*8.53E-02*/
/*8.40E-02*/
/*8.27E-02*/
/*8.14E-02*/
/*8.01E-02*/
/*7.88E-02*/
/*7.75E-02*/
/*7.62E-02*/
/*7.49E-02*/
/*7.36E-02*/
/*7.22E-02*/
/*7.09E-02*/
/*6.96E-02*/
/*6.83E-02*/
/*6.70E-02*/
/*6.57E-02*/
/*6.44E-02*/
/*6.31E-02*/
/*6.17E-02*/
/*6.04E-02*/
/*5.91E-02*/
/*5.78E-02*/
/*5.65E-02*/
/*5.52E-02*/
/*5.39E-02*/
/*5.25E-02*/
/*5.12E-02*/
/*4.99E-02*/
/*4.86E-02*/
/*4.73E-02*/
/*4.60E-02*/
/*4.47E-02*/
/*4.34E-02*/
/*4.20E-02*/
/*4.07E-02*/
/*3.94E-02*/
/*3.81E-02*/
/*3.68E-02*/
/*3.55E-02*/
/*3.42E-02*/
/*3.28E-02*/
/*3.15E-02*/
/*3.02E-02*/
/*2.89E-02*/
/*2.76E-02*/
/*2.63E-02*/
/*2.50E-02*/
/*2.36E-02*/
/*2.23E-02*/
/*2.10E-02*/
/*1.97E-02*/
/*1.84E-02*/
/*1.71E-02*/
/*1.58E-02*/
/*1.45E-02*/
/*1.31E-02*/
/*1.18E-02*/
/*1.05E-02*/
/*9.19E-03*/
/*7.88E-03*/
/*6.57E-03*/
/*5.25E-03*/
/*3.94E-03*/
/*2.63E-03*/
/*1.31E-03*/
/*0*/
/*)*/

/*80*/
/*(*/
/*0*/
/*2.11E-02*/
/*4.19E-02*/
/*6.12E-02*/
/*7.56E-02*/
/*8.09E-02*/
/*8.07E-02*/
/*7.99E-02*/
/*7.90E-02*/
/*7.80E-02*/
/*7.70E-02*/
/*7.59E-02*/
/*7.49E-02*/
/*7.38E-02*/
/*7.27E-02*/
/*7.16E-02*/
/*7.05E-02*/
/*6.94E-02*/
/*6.83E-02*/
/*6.72E-02*/
/*6.61E-02*/
/*6.49E-02*/
/*6.38E-02*/
/*6.27E-02*/
/*6.16E-02*/
/*6.05E-02*/
/*5.94E-02*/
/*5.82E-02*/
/*5.71E-02*/
/*5.60E-02*/
/*5.49E-02*/
/*5.38E-02*/
/*5.26E-02*/
/*5.15E-02*/
/*5.04E-02*/
/*4.93E-02*/
/*4.82E-02*/
/*4.70E-02*/
/*4.59E-02*/
/*4.48E-02*/
/*4.37E-02*/
/*4.26E-02*/
/*4.14E-02*/
/*4.03E-02*/
/*3.92E-02*/
/*3.81E-02*/
/*3.70E-02*/
/*3.58E-02*/
/*3.47E-02*/
/*3.36E-02*/
/*3.25E-02*/
/*3.14E-02*/
/*3.02E-02*/
/*2.91E-02*/
/*2.80E-02*/
/*2.69E-02*/
/*2.58E-02*/
/*2.46E-02*/
/*2.35E-02*/
/*2.24E-02*/
/*2.13E-02*/
/*2.02E-02*/
/*1.90E-02*/
/*1.79E-02*/
/*1.68E-02*/
/*1.57E-02*/
/*1.46E-02*/
/*1.34E-02*/
/*1.23E-02*/
/*1.12E-02*/
/*1.01E-02*/
/*8.96E-03*/
/*7.84E-03*/
/*6.72E-03*/
/*5.60E-03*/
/*4.48E-03*/
/*3.36E-03*/
/*2.24E-03*/
/*1.12E-03*/
/*0*/
/*)*/

/*80*/
/*(*/
/*0*/
/*1.85E-02*/
/*3.68E-02*/
/*5.38E-02*/
/*6.67E-02*/
/*7.21E-02*/
/*7.26E-02*/
/*7.22E-02*/
/*7.14E-02*/
/*7.06E-02*/
/*6.97E-02*/
/*6.88E-02*/
/*6.79E-02*/
/*6.69E-02*/
/*6.60E-02*/
/*6.50E-02*/
/*6.40E-02*/
/*6.30E-02*/
/*6.20E-02*/
/*6.10E-02*/
/*6.00E-02*/
/*5.90E-02*/
/*5.79E-02*/
/*5.69E-02*/
/*5.59E-02*/
/*5.49E-02*/
/*5.39E-02*/
/*5.29E-02*/
/*5.19E-02*/
/*5.08E-02*/
/*4.98E-02*/
/*4.88E-02*/
/*4.78E-02*/
/*4.68E-02*/
/*4.58E-02*/
/*4.47E-02*/
/*4.37E-02*/
/*4.27E-02*/
/*4.17E-02*/
/*4.07E-02*/
/*3.97E-02*/
/*3.86E-02*/
/*3.76E-02*/
/*3.66E-02*/
/*3.56E-02*/
/*3.46E-02*/
/*3.36E-02*/
/*3.25E-02*/
/*3.15E-02*/
/*3.05E-02*/
/*2.95E-02*/
/*2.85E-02*/
/*2.75E-02*/
/*2.64E-02*/
/*2.54E-02*/
/*2.44E-02*/
/*2.34E-02*/
/*2.24E-02*/
/*2.14E-02*/
/*2.03E-02*/
/*1.93E-02*/
/*1.83E-02*/
/*1.73E-02*/
/*1.63E-02*/
/*1.53E-02*/
/*1.42E-02*/
/*1.32E-02*/
/*1.22E-02*/
/*1.12E-02*/
/*1.02E-02*/
/*9.15E-03*/
/*8.14E-03*/
/*7.12E-03*/
/*6.10E-03*/
/*5.08E-03*/
/*4.07E-03*/
/*3.05E-03*/
/*2.03E-03*/
/*1.02E-03*/
/*0*/
/*)*/

/*80*/
/*(*/
/*0*/
/*1.51E-02*/
/*3.00E-02*/
/*4.38E-02*/
/*5.44E-02*/
/*5.93E-02*/
/*6.04E-02*/
/*6.03E-02*/
/*5.99E-02*/
/*5.93E-02*/
/*5.87E-02*/
/*5.80E-02*/
/*5.72E-02*/
/*5.65E-02*/
/*5.57E-02*/
/*5.49E-02*/
/*5.40E-02*/
/*5.32E-02*/
/*5.24E-02*/
/*5.15E-02*/
/*5.07E-02*/
/*4.98E-02*/
/*4.90E-02*/
/*4.81E-02*/
/*4.73E-02*/
/*4.64E-02*/
/*4.56E-02*/
/*4.47E-02*/
/*4.38E-02*/
/*4.30E-02*/
/*4.21E-02*/
/*4.13E-02*/
/*4.04E-02*/
/*3.95E-02*/
/*3.87E-02*/
/*3.78E-02*/
/*3.70E-02*/
/*3.61E-02*/
/*3.52E-02*/
/*3.44E-02*/
/*3.35E-02*/
/*3.27E-02*/
/*3.18E-02*/
/*3.10E-02*/
/*3.01E-02*/
/*2.92E-02*/
/*2.84E-02*/
/*2.75E-02*/
/*2.67E-02*/
/*2.58E-02*/
/*2.49E-02*/
/*2.41E-02*/
/*2.32E-02*/
/*2.24E-02*/
/*2.15E-02*/
/*2.06E-02*/
/*1.98E-02*/
/*1.89E-02*/
/*1.81E-02*/
/*1.72E-02*/
/*1.63E-02*/
/*1.55E-02*/
/*1.46E-02*/
/*1.38E-02*/
/*1.29E-02*/
/*1.20E-02*/
/*1.12E-02*/
/*1.03E-02*/
/*9.46E-03*/
/*8.60E-03*/
/*7.74E-03*/
/*6.88E-03*/
/*6.02E-03*/
/*5.16E-03*/
/*4.30E-03*/
/*3.44E-03*/
/*2.58E-03*/
/*1.72E-03*/
/*8.60E-04*/
/*0*/
/*)*/

/*80*/
/*(*/
/*0*/
/*0*/
/*0*/
/*0*/
/*0*/
/*0*/
/*0*/
/*0*/
/*0*/
/*0*/
/*0*/
/*0*/
/*0*/
/*0*/
/*0*/
/*0*/
/*0*/
/*0*/
/*0*/
/*0*/
/*0*/
/*0*/
/*0*/
/*0*/
/*0*/
/*0*/
/*0*/
/*0*/
/*0*/
/*0*/
/*0*/
/*0*/
/*0*/
/*0*/
/*0*/
/*0*/
/*0*/
/*0*/
/*0*/
/*0*/
/*0*/
/*0*/
/*0*/
/*0*/
/*0*/
/*0*/
/*0*/
/*0*/
/*0*/
/*0*/
/*0*/
/*0*/
/*0*/
/*0*/
/*0*/
/*0*/
/*0*/
/*0*/
/*0*/
/*0*/
/*0*/
/*0*/
/*0*/
/*0*/
/*0*/
/*0*/
/*0*/
/*0*/
/*0*/
/*0*/
/*0*/
/*0*/
/*0*/
/*0*/
/*0*/
/*0*/
/*0*/
/*0*/
/*0*/
/*0*/
/*)*/
);
// ************************************************************************* //
