/*--------------------------------*- C++ -*----------------------------------*\
| =========                 |                                                 |
| \\      /  F ield         | OpenFOAM: The Open Source CFD Toolbox           |
|  \\    /   O peration     | Version:  1.0                                   |
|   \\  /    A nd           | Web:      http://www.openfoam.org               |
|    \\/     M anipulation  |                                                 |
\*---------------------------------------------------------------------------*/

FoamFile
{
    version         2.0;
    format          ascii;

    root            "";
    case            "";
    instance        "";
    local           "";

    class           dictionary;
    object          ThermoPopeCloud;
}

// * * * * * * * * * * * * * * * * * * * * * * * * * * * * * * * * * * * * * //
fileName   "H2O";
fields 
(
    {
        N 79;	
	    max 1;
	    min 0;
	    name f;
	}
);

output
( 
    {
        name f;
    }
    {
        name H2O0;
	}
/*    {*/
/*        name H2O1;*/
/*    }*/
/*    {*/
/*        name H2O2;*/
/*    }*/
/*    {*/
/*        name H2O3;*/
/*    }*/
/*    {*/
/*        name H2O4;*/
/*    }*/
/*    {*/
/*        name H2O5;*/
/*    }*/
/*    {*/
/*        name H2O6;*/
/*    }*/
);

values
(
80
(
0
0.01266
0.02532
0.03797
0.05063
0.06329
0.07595
0.08861
0.10127
0.11392
0.12658
0.13924
0.1519
0.16456
0.17722
0.18987
0.20253
0.21519
0.22785
0.24051
0.25316
0.26582
0.27848
0.29114
0.3038
0.31646
0.32911
0.34177
0.35443
0.36709
0.37975
0.39241
0.40506
0.41772
0.43038
0.44304
0.4557
0.46835
0.48101
0.49367
0.50633
0.51899
0.53165
0.5443
0.55696
0.56962
0.58228
0.59494
0.60759
0.62025
0.63291
0.64557
0.65823
0.67089
0.68354
0.6962
0.70886
0.72152
0.73418
0.74684
0.75949
0.77215
0.78481
0.79747
0.81013
0.82278
0.83544
0.8481
0.86076
0.87342
0.88608
0.89873
0.91139
0.92405
0.93671
0.94937
0.96203
0.97468
0.98734
1
)

80
(
0
2.85E-02
5.68E-02
8.45E-02
0.11
0.128
0.127
0.125
0.123
0.121
0.12
0.118
0.116
0.114
0.112
0.111
0.109
0.107
0.105
0.104
0.102
0.1
9.85E-02
9.68E-02
9.50E-02
9.33E-02
9.16E-02
8.98E-02
8.81E-02
8.64E-02
8.47E-02
8.29E-02
8.12E-02
7.95E-02
7.77E-02
7.60E-02
7.43E-02
7.26E-02
7.08E-02
6.91E-02
6.74E-02
6.57E-02
6.39E-02
6.22E-02
6.05E-02
5.87E-02
5.70E-02
5.53E-02
5.36E-02
5.18E-02
5.01E-02
4.84E-02
4.67E-02
4.49E-02
4.32E-02
4.15E-02
3.97E-02
3.80E-02
3.63E-02
3.46E-02
3.28E-02
3.11E-02
2.94E-02
2.76E-02
2.59E-02
2.42E-02
2.25E-02
2.07E-02
1.90E-02
1.73E-02
1.56E-02
1.38E-02
1.21E-02
1.04E-02
8.64E-03
6.91E-03
5.18E-03
3.46E-03
1.73E-03
0
)

/*80*/
/*(*/
/*0*/
/*2.83E-02*/
/*5.64E-02*/
/*8.29E-02*/
/*0.106*/
/*0.125*/
/*0.126*/
/*0.125*/
/*0.123*/
/*0.121*/
/*0.12*/
/*0.118*/
/*0.116*/
/*0.114*/
/*0.113*/
/*0.111*/
/*0.109*/
/*0.107*/
/*0.106*/
/*0.104*/
/*0.102*/
/*0.1*/
/*9.87E-02*/
/*9.70E-02*/
/*9.53E-02*/
/*9.35E-02*/
/*9.18E-02*/
/*9.01E-02*/
/*8.83E-02*/
/*8.66E-02*/
/*8.49E-02*/
/*8.31E-02*/
/*8.14E-02*/
/*7.97E-02*/
/*7.80E-02*/
/*7.62E-02*/
/*7.45E-02*/
/*7.28E-02*/
/*7.10E-02*/
/*6.93E-02*/
/*6.76E-02*/
/*6.58E-02*/
/*6.41E-02*/
/*6.24E-02*/
/*6.06E-02*/
/*5.89E-02*/
/*5.72E-02*/
/*5.54E-02*/
/*5.37E-02*/
/*5.20E-02*/
/*5.02E-02*/
/*4.85E-02*/
/*4.68E-02*/
/*4.50E-02*/
/*4.33E-02*/
/*4.16E-02*/
/*3.98E-02*/
/*3.81E-02*/
/*3.64E-02*/
/*3.46E-02*/
/*3.29E-02*/
/*3.12E-02*/
/*2.95E-02*/
/*2.77E-02*/
/*2.60E-02*/
/*2.43E-02*/
/*2.25E-02*/
/*2.08E-02*/
/*1.91E-02*/
/*1.73E-02*/
/*1.56E-02*/
/*1.39E-02*/
/*1.21E-02*/
/*1.04E-02*/
/*8.66E-03*/
/*6.93E-03*/
/*5.20E-03*/
/*3.46E-03*/
/*1.73E-03*/
/*0*/
/*)*/

/*80*/
/*(*/
/*0*/
/*2.76E-02*/
/*5.48E-02*/
/*7.99E-02*/
/*0.102*/
/*0.12*/
/*0.123*/
/*0.123*/
/*0.122*/
/*0.12*/
/*0.119*/
/*0.117*/
/*0.116*/
/*0.114*/
/*0.112*/
/*0.111*/
/*0.109*/
/*0.107*/
/*0.106*/
/*0.104*/
/*0.102*/
/*0.1*/
/*9.88E-02*/
/*9.70E-02*/
/*9.53E-02*/
/*9.36E-02*/
/*9.19E-02*/
/*9.01E-02*/
/*8.84E-02*/
/*8.67E-02*/
/*8.49E-02*/
/*8.32E-02*/
/*8.15E-02*/
/*7.98E-02*/
/*7.80E-02*/
/*7.63E-02*/
/*7.46E-02*/
/*7.28E-02*/
/*7.11E-02*/
/*6.94E-02*/
/*6.76E-02*/
/*6.59E-02*/
/*6.42E-02*/
/*6.24E-02*/
/*6.07E-02*/
/*5.90E-02*/
/*5.72E-02*/
/*5.55E-02*/
/*5.38E-02*/
/*5.20E-02*/
/*5.03E-02*/
/*4.86E-02*/
/*4.68E-02*/
/*4.51E-02*/
/*4.34E-02*/
/*4.16E-02*/
/*3.99E-02*/
/*3.82E-02*/
/*3.64E-02*/
/*3.47E-02*/
/*3.30E-02*/
/*3.12E-02*/
/*2.95E-02*/
/*2.77E-02*/
/*2.60E-02*/
/*2.43E-02*/
/*2.25E-02*/
/*2.08E-02*/
/*1.91E-02*/
/*1.73E-02*/
/*1.56E-02*/
/*1.39E-02*/
/*1.21E-02*/
/*1.04E-02*/
/*8.67E-03*/
/*6.94E-03*/
/*5.20E-03*/
/*3.47E-03*/
/*1.73E-03*/
/*0*/
/*)*/

/*80*/
/*(*/
/*0*/
/*2.68E-02*/
/*5.31E-02*/
/*7.79E-02*/
/*9.95E-02*/
/*0.115*/
/*0.12*/
/*0.121*/
/*0.12*/
/*0.119*/
/*0.118*/
/*0.117*/
/*0.115*/
/*0.114*/
/*0.112*/
/*0.111*/
/*0.109*/
/*0.108*/
/*0.106*/
/*0.104*/
/*0.103*/
/*0.101*/
/*9.93E-02*/
/*9.76E-02*/
/*9.59E-02*/
/*9.41E-02*/
/*9.24E-02*/
/*9.07E-02*/
/*8.90E-02*/
/*8.73E-02*/
/*8.55E-02*/
/*8.38E-02*/
/*8.21E-02*/
/*8.03E-02*/
/*7.86E-02*/
/*7.68E-02*/
/*7.51E-02*/
/*7.34E-02*/
/*7.16E-02*/
/*6.99E-02*/
/*6.81E-02*/
/*6.64E-02*/
/*6.46E-02*/
/*6.29E-02*/
/*6.11E-02*/
/*5.94E-02*/
/*5.77E-02*/
/*5.59E-02*/
/*5.42E-02*/
/*5.24E-02*/
/*5.07E-02*/
/*4.89E-02*/
/*4.72E-02*/
/*4.54E-02*/
/*4.37E-02*/
/*4.19E-02*/
/*4.02E-02*/
/*3.84E-02*/
/*3.67E-02*/
/*3.49E-02*/
/*3.32E-02*/
/*3.15E-02*/
/*2.97E-02*/
/*2.80E-02*/
/*2.62E-02*/
/*2.45E-02*/
/*2.27E-02*/
/*2.10E-02*/
/*1.92E-02*/
/*1.75E-02*/
/*1.57E-02*/
/*1.40E-02*/
/*1.22E-02*/
/*1.05E-02*/
/*8.74E-03*/
/*6.99E-03*/
/*5.24E-03*/
/*3.49E-03*/
/*1.75E-03*/
/*0*/
/*)*/

/*80*/
/*(*/
/*0*/
/*2.64E-02*/
/*5.24E-02*/
/*7.70E-02*/
/*9.84E-02*/
/*0.113*/
/*0.119*/
/*0.119*/
/*0.119*/
/*0.118*/
/*0.117*/
/*0.116*/
/*0.115*/
/*0.114*/
/*0.112*/
/*0.111*/
/*0.109*/
/*0.108*/
/*0.106*/
/*0.104*/
/*0.103*/
/*0.101*/
/*9.95E-02*/
/*9.78E-02*/
/*9.61E-02*/
/*9.44E-02*/
/*9.27E-02*/
/*9.10E-02*/
/*8.93E-02*/
/*8.75E-02*/
/*8.58E-02*/
/*8.41E-02*/
/*8.23E-02*/
/*8.06E-02*/
/*7.88E-02*/
/*7.71E-02*/
/*7.54E-02*/
/*7.36E-02*/
/*7.19E-02*/
/*7.01E-02*/
/*6.84E-02*/
/*6.66E-02*/
/*6.49E-02*/
/*6.31E-02*/
/*6.14E-02*/
/*5.96E-02*/
/*5.79E-02*/
/*5.61E-02*/
/*5.44E-02*/
/*5.26E-02*/
/*5.09E-02*/
/*4.91E-02*/
/*4.73E-02*/
/*4.56E-02*/
/*4.38E-02*/
/*4.21E-02*/
/*4.03E-02*/
/*3.86E-02*/
/*3.68E-02*/
/*3.51E-02*/
/*3.33E-02*/
/*3.16E-02*/
/*2.98E-02*/
/*2.81E-02*/
/*2.63E-02*/
/*2.46E-02*/
/*2.28E-02*/
/*2.10E-02*/
/*1.93E-02*/
/*1.75E-02*/
/*1.58E-02*/
/*1.40E-02*/
/*1.23E-02*/
/*1.05E-02*/
/*8.77E-03*/
/*7.01E-03*/
/*5.26E-03*/
/*3.51E-03*/
/*1.75E-03*/
/*0*/
/*)*/

/*80*/
/*(*/
/*0*/
/*2.57E-02*/
/*5.11E-02*/
/*7.53E-02*/
/*9.62E-02*/
/*0.11*/
/*0.115*/
/*0.117*/
/*0.117*/
/*0.116*/
/*0.116*/
/*0.115*/
/*0.114*/
/*0.113*/
/*0.111*/
/*0.11*/
/*0.109*/
/*0.107*/
/*0.106*/
/*0.104*/
/*0.103*/
/*0.101*/
/*9.94E-02*/
/*9.77E-02*/
/*9.61E-02*/
/*9.44E-02*/
/*9.27E-02*/
/*9.10E-02*/
/*8.93E-02*/
/*8.76E-02*/
/*8.59E-02*/
/*8.41E-02*/
/*8.24E-02*/
/*8.07E-02*/
/*7.89E-02*/
/*7.72E-02*/
/*7.54E-02*/
/*7.37E-02*/
/*7.20E-02*/
/*7.02E-02*/
/*6.85E-02*/
/*6.67E-02*/
/*6.50E-02*/
/*6.32E-02*/
/*6.15E-02*/
/*5.97E-02*/
/*5.79E-02*/
/*5.62E-02*/
/*5.44E-02*/
/*5.27E-02*/
/*5.09E-02*/
/*4.92E-02*/
/*4.74E-02*/
/*4.57E-02*/
/*4.39E-02*/
/*4.22E-02*/
/*4.04E-02*/
/*3.86E-02*/
/*3.69E-02*/
/*3.51E-02*/
/*3.34E-02*/
/*3.16E-02*/
/*2.99E-02*/
/*2.81E-02*/
/*2.63E-02*/
/*2.46E-02*/
/*2.28E-02*/
/*2.11E-02*/
/*1.93E-02*/
/*1.76E-02*/
/*1.58E-02*/
/*1.41E-02*/
/*1.23E-02*/
/*1.05E-02*/
/*8.78E-03*/
/*7.03E-03*/
/*5.27E-03*/
/*3.51E-03*/
/*1.76E-03*/
/*0*/
/*)*/

/*80*/
/*(*/
/*0*/
/*0*/
/*0*/
/*0*/
/*0*/
/*0*/
/*0*/
/*0*/
/*0*/
/*0*/
/*0*/
/*0*/
/*0*/
/*0*/
/*0*/
/*0*/
/*0*/
/*0*/
/*0*/
/*0*/
/*0*/
/*0*/
/*0*/
/*0*/
/*0*/
/*0*/
/*0*/
/*0*/
/*0*/
/*0*/
/*0*/
/*0*/
/*0*/
/*0*/
/*0*/
/*0*/
/*0*/
/*0*/
/*0*/
/*0*/
/*0*/
/*0*/
/*0*/
/*0*/
/*0*/
/*0*/
/*0*/
/*0*/
/*0*/
/*0*/
/*0*/
/*0*/
/*0*/
/*0*/
/*0*/
/*0*/
/*0*/
/*0*/
/*0*/
/*0*/
/*0*/
/*0*/
/*0*/
/*0*/
/*0*/
/*0*/
/*0*/
/*0*/
/*0*/
/*0*/
/*0*/
/*0*/
/*0*/
/*0*/
/*0*/
/*0*/
/*0*/
/*0*/
/*0*/
/*0*/
/*)*/
);
// ************************************************************************* //
