/*--------------------------------*- C++ -*----------------------------------*\
| =========                 |                                                 |
| \\      /  F ield         | OpenFOAM: The Open Source CFD Toolbox           |
|  \\    /   O peration     | Version:  5.x                                   |
|   \\  /    A nd           | Web:      www.OpenFOAM.org                      |
|    \\/     M anipulation  |                                                 |
\*---------------------------------------------------------------------------*/

FoamFile
{
    version     2.0;
    format      ascii;
    class       dictionary;
    location    "constant";
    object      thermophysicalProperties;
}

// * * * * * * * * * * * * * * * * * * * * * * * * * * * * * * * * * * * * * //

thermoType
{
    type             hePsiThermo;
    mixture          reactingMixture;
    transport        sutherland;
    thermo           janaf;
    energy           sensibleEnthalpy;
    equationOfState  perfectGas;
    specie           specie;
}

inertSpecie          N2;

fuelSpecie           SIH4;

CHEMKINFile          "$FOAM_CASE/constant/mechanism/chem.inp";

CHEMKINThermoFile    "$FOAM_CASE/constant/mechanism/therm.dat";

CHEMKINTransportFile "$FOAM_CASE/constant/mechanism/transportProperties";

// ************************************************************************* //
