/*--------------------------------*- C++ -*----------------------------------*\
| =========                 |                                                 |
| \\      /  F ield         | OpenFOAM: The Open Source CFD Toolbox           |
|  \\    /   O peration     | Version:  5.x                                   |
|   \\  /    A nd           | Web:      www.OpenFOAM.org                      |
|    \\/     M anipulation  |                                                 |
\*---------------------------------------------------------------------------*/

FoamFile
{
    version     2.0;
    format      ascii;
    class       dictionary;
    location    "constant";
    object      turbulenceProperties;
}

// * * * * * * * * * * * * * * * * * * * * * * * * * * * * * * * * * * * * * //

simulationType  LES;

LES
{
    LESModel           Smagorinsky;

    turbulence            on;

    printCoeffs           on;

    delta        cubeRootVol;

    cubeRootVolCoeffs
    {
        deltaCoeff           1;
    }

    sigmaCoeffs
    {
        Ck               0.094;
        Csigma             1.5;
    }

    SmagorinskyCoeffs
    {
        Ce               8.306;
        Prt                  1;
        Ck               0.094;
    }
}


// ************************************************************************* //
