/*--------------------------------*- C++ -*----------------------------------*\
| =========                 |                                                 |
| \\      /  F ield         | OpenFOAM: The Open Source CFD Toolbox           |
|  \\    /   O peration     | Version:  2.0.1                                 |
|   \\  /    A nd           | Web:      www.OpenFOAM.com                      |
|    \\/     M anipulation  |                                                 |
\*---------------------------------------------------------------------------*/
FoamFile
{
    version     2.0;
    format      ascii;
    class       dictionary;
    object      blockMeshDict;
}
// * * * * * * * * * * * * * * * * * * * * * * * * * * * * * * * * * * * * * //

convertToMeters 0.001;

vertices
(
    (-17.2800 -20.1600 -11.5200)    // 0
    ( 17.2800 -20.1600 -11.5200)    // 1
    ( 17.2800  20.1600 -11.5200)    // 2
    (-17.2800  20.1600 -11.5200)    // 3
    (-17.2800 -20.1600  11.5200)    // 4
    ( 17.2800 -20.1600  11.5200)    // 5
    ( 17.2800  20.1600  11.5200)    // 6
    (-17.2800  20.1600  11.5200)    // 7
);

blocks
(
    hex (0 1 2 3 4 5 6 7) (2 12 1)
    simpleGrading
    (
        1           // x direction: uniform
        (
            (0.217260320063021 0.083333333333333 1.000000000000000)  // 22% y-dir, 8% cells, expansion = 1.00
            (0.080906003471569 0.083333333333333 1.000000000000000)  // 8% y-dir, 8% cells, expansion = 1.00
            (0.057316735073468 0.083333333333333 1.000000000000000)  // 6% y-dir, 8% cells, expansion = 1.00
            (0.042925824182070 0.083333333333333 1.000000000000000)  // 4% y-dir, 8% cells, expansion = 1.00
            (0.043016720873112 0.083333333333333 1.000000000000000)  // 4% y-dir, 8% cells, expansion = 1.00
            (0.058574396336760 0.083333333333333 1.000000000000000)  // 6% y-dir, 8% cells, expansion = 1.00
            (0.058574396336760 0.083333333333333 1.000000000000000)  // 6% y-dir, 8% cells, expansion = 1.00
            (0.043016720873112 0.083333333333333 1.000000000000000)  // 4% y-dir, 8% cells, expansion = 1.00
            (0.042925824182070 0.083333333333333 1.000000000000000)  // 4% y-dir, 8% cells, expansion = 1.00
            (0.057316735073468 0.083333333333333 1.000000000000000)  // 6% y-dir, 8% cells, expansion = 1.00
            (0.080906003471569 0.083333333333333 1.000000000000000)  // 8% y-dir, 8% cells, expansion = 1.00
            (0.217260320063021 0.083333333333333 1.000000000000000)  // 22% y-dir, 8% cells, expansion = 1.00
        )
        1           // z direction: uniform
    )
);

edges
(
);

boundary
(
    patch0_half0
    {
        type cyclic;
        neighbourPatch patch0_half1;
        faces
        (
            (0 4 7 3)
        );
        physicalType periodic;
    }

    patch0_half1
    {
        type cyclic;
        neighbourPatch patch0_half0;
        faces
        (
            (2 6 5 1)
        );
        physicalType periodic;
    }

    patch1_half0
    {
        type cyclic;
        neighbourPatch patch1_half1;
        faces
        (
            (4 5 6 7)
        );
        physicalType periodic;
    }

    patch1_half1
    {
        type cyclic;
        neighbourPatch patch1_half0;
        faces
        (
            (0 3 2 1)
        );
        physicalType periodic;
    }

    under_side
    {
        type patch;
        physicalType particleInflowOutflow;
        faces
        (
            (1 5 4 0)
        );
    }

    upper_side
    {
        type patch;
        physicalType particleInflowOutflow;
        faces
        (
            (3 7 6 2)
        );
    }
);

mergePatchPairs
(
);

// ************************************************************************* //
