/*--------------------------------*- C++ -*----------------------------------*\
 * | =========                 |                                                 |
 * | \\      /  F ield         | OpenFOAM: The Open Source CFD Toolbox           |
 * |  \\    /   O peration     | Version:  1.7.1                                 |
 * |   \\  /    A nd           | Web:      www.OpenFOAM.com                      |
 * |    \\/     M anipulation  |                                                 |
 * \*---------------------------------------------------------------------------*/
FoamFile
{
    version     2.0;
    format      ascii;
    class       dictionary;
    object      blockMeshDict;
}
// * * * * * * * * * * * * * * * * * * * * * * * * * * * * * * * * * * * * * //

scale 1;

vertices
(
    (0 0 0) // 0
    (1 0 0) // 1
    (1 1 0) // 2
    (0 1 0) // 3
    (0 0 1) // 4
    (1 0 1) // 5
    (1 1 1) // 6
    (0 1 1) // 7
);

blocks
(
    hex (0 1 2 3 4 5 6 7) ( 1 1 1 ) simpleGrading (1 1 1)
);

edges
(
);

boundary
(   
    inlet
    {
        type patch;
        physicalType noParticleOutflow;
        faces
        (
            ( 0  1  2  3 )
        );
    }
    
    outlet
    {
        type patch;
        physicalType particleOutflow;
        faces
        (
            ( 4  5  6  7 )
        ); 
    }
    
    side
    {
        type patch;
        physicalType particleOutflow;
        faces
        (
            (  0  1  5  4)
            (  1  2  6  5)
            (  2  3  7  6)
            (  3  0  4  7)
        );   
    }
);

/// ************************************************************************* //
