/*--------------------------------*- C++ -*----------------------------------*\
| =========                 |                                                 |
| \\      /  F ield         | OpenFOAM: The Open Source CFD Toolbox           |
|  \\    /   O peration     | Version:  5.x                                   |
|   \\  /    A nd           | Web:      www.OpenFOAM.org                      |
|    \\/     M anipulation  |                                                 |
\*---------------------------------------------------------------------------*/

FoamFile
{
    version     2.0;
    format      ascii;
    class       dictionary;
    object      sampleDict;
}

// * * * * * * * * * * * * * * * * * * * * * * * * * * * * * * * * * * * * //

setFormat 		raw;
surfaceFormat 		raw;

interpolationScheme	cell;

fields
(
    section20Av
    section21Av
    section22Av
    section23Av
    section24Av
    section25Av
    section26Av
    section27Av
    section28Av
    section29Av
);

sets
(
    zD00
    {
        type        midPoint;
        axis        y;

        start       ( 0  0      1e-08 );
        end         ( 0  0.0457 1e-08 );
    }

    zD01
    {
        type        midPoint;
        axis        y;

        start       ( 0  0      0.00457 );
        end         ( 0  0.0457 0.00457 );
    }

    zD05
    {
        type        midPoint;
        axis        y;

        start       ( 0  0      0.02285 );
        end         ( 0  0.0457 0.02285 );
    }
    
    zD10
    {
        type        midPoint;
        axis        y;

        start       ( 0  0      0.04570 );
        end         ( 0  0.0457 0.04570 );
    }

    zD15
    {
        type        midPoint;
        axis        y;

        start       ( 0  0      0.06855 );
        end         ( 0  0.0457 0.06855 );
    }

    zD20
    {
        type        midPoint;
        axis        y;

        start       ( 0  0      0.09140 );
        end         ( 0  0.0457 0.09140 );
    }

    //zD25
    //{
    //    type        midPoint;
    //    axis        y;

    //    start       ( 0  0      0.11425 );
    //    end         ( 0  0.0457 0.11425 );
    //}

    //zD30
    //{
    //    type        midPoint;
    //    axis        y;

    //    start       ( 0  0      0.13710 );
    //    end         ( 0  0.0457 0.13710 );
    //}

    //zD35
    //{
    //    type        midPoint;
    //    axis        y;

    //    start       ( 0  0      0.15995 );
    //    end         ( 0  0.0457 0.15995 );
    //}

    //zD40
    //{
    //    type        midPoint;
    //    axis        y;

    //    start       ( 0  0      0.18280 );
    //    end         ( 0  0.0457 0.18280 );
    //}
);

// *********************************************************************** //
