/*--------------------------------*- C++ -*----------------------------------*\
| =========                 |                                                 |
| \\      /  F ield         | OpenFOAM: The Open Source CFD Toolbox           |
|  \\    /   O peration     | Version:  2.1.x                                 |
|   \\  /    A nd           | Web:      www.OpenFOAM.org                      |
|    \\/     M anipulation  |                                                 |
\*---------------------------------------------------------------------------*/
FoamFile
{
    version     2.0;
    format      ascii;
    class       dictionary;
    location    "system";
    object      controlDict;
}
// * * * * * * * * * * * * * * * * * * * * * * * * * * * * * * * * * * * * * //

application     mmcFoam;

startFrom       startTime;
//startFrom       latestTime;

startTime       0.;

//stopAt          writeNow; //endTime;
stopAt          endTime;

endTime         0.0007;
//endTime         0.000200;

deltaT          1e-07;

writeControl    timeStep;

writeInterval   5;

writeFormat     ascii;

writePrecision  7;

writeCompression off;

timeFormat      general;

timePrecision   7;

runTimeModifiable true;

adjustTimeStep  yes;

maxCo           0.6;

// ************************************************************************* //
