/*--------------------------------*- C++ -*----------------------------------*\
| =========                 |                                                 |
| \\      /  F ield         | OpenFOAM: The Open Source CFD Toolbox           |
|  \\    /   O peration     | Version:  1.0                                   |
|   \\  /    A nd           | Web:      http://www.openfoam.org               |
|    \\/     M anipulation  |                                                 |
\*---------------------------------------------------------------------------*/

FoamFile
{
    version         2.0;
    format          ascii;

    root            "";
    case            "";
    instance        "";
    local           "";

    class           dictionary;
    object          ThermoPopeCloud;
}

// * * * * * * * * * * * * * * * * * * * * * * * * * * * * * * * * * * * * * //
fileName   "h";
fields 
(
    {
        N 79;	
	    max 1;
	    min 0;
	    name f;
	}
);

output
( 
    {
        name f;
    }
    {
        name h0;
	}
    {
        name h1;
    }

);

values
(
80
(
0
0.01266
0.02532
0.03797
0.05063
0.06329
0.07595
0.08861
0.10127
0.11392
0.12658
0.13924
0.1519
0.16456
0.17722
0.18987
0.20253
0.21519
0.22785
0.24051
0.25316
0.26582
0.27848
0.29114
0.3038
0.31646
0.32911
0.34177
0.35443
0.36709
0.37975
0.39241
0.40506
0.41772
0.43038
0.44304
0.4557
0.46835
0.48101
0.49367
0.50633
0.51899
0.53165
0.5443
0.55696
0.56962
0.58228
0.59494
0.60759
0.62025
0.63291
0.64557
0.65823
0.67089
0.68354
0.6962
0.70886
0.72152
0.73418
0.74684
0.75949
0.77215
0.78481
0.79747
0.81013
0.82278
0.83544
0.8481
0.86076
0.87342
0.88608
0.89873
0.91139
0.92405
0.93671
0.94937
0.96203
0.97468
0.98734
1
)

80
(
2.980E+02
8.780E+02
1.376E+03
1.793E+03
2.088E+03
2.160E+03
2.088E+03
2.018E+03
1.952E+03
1.892E+03
1.835E+03
1.782E+03
1.732E+03
1.685E+03
1.640E+03
1.598E+03
1.557E+03
1.518E+03
1.481E+03
1.445E+03
1.411E+03
1.378E+03
1.346E+03
1.316E+03
1.286E+03
1.257E+03
1.229E+03
1.202E+03
1.176E+03
1.150E+03
1.125E+03
1.101E+03
1.077E+03
1.054E+03
1.031E+03
1.009E+03
9.880E+02
9.670E+02
9.460E+02
9.260E+02
9.060E+02
8.860E+02
8.670E+02
8.480E+02
8.290E+02
8.110E+02
7.930E+02
7.760E+02
7.580E+02
7.410E+02
7.240E+02
7.070E+02
6.910E+02
6.750E+02
6.590E+02
6.430E+02
6.270E+02
6.110E+02
5.960E+02
5.810E+02
5.660E+02
5.510E+02
5.360E+02
5.210E+02
5.070E+02
4.920E+02
4.780E+02
4.640E+02
4.500E+02
4.350E+02
4.210E+02
4.080E+02
3.940E+02
3.800E+02
3.660E+02
3.530E+02
3.390E+02
3.250E+02
3.120E+02
2.980E+02
)

80
(
2.980E+02
2.980E+02
2.980E+02
2.980E+02
2.980E+02
2.980E+02
2.980E+02
2.980E+02
2.980E+02
2.980E+02
2.980E+02
2.980E+02
2.980E+02
2.980E+02
2.980E+02
2.980E+02
2.980E+02
2.980E+02
2.980E+02
2.980E+02
2.980E+02
2.980E+02
2.980E+02
2.980E+02
2.980E+02
2.980E+02
2.980E+02
2.980E+02
2.980E+02
2.980E+02
2.980E+02
2.980E+02
2.980E+02
2.980E+02
2.980E+02
2.980E+02
2.980E+02
2.980E+02
2.980E+02
2.980E+02
2.980E+02
2.980E+02
2.980E+02
2.980E+02
2.980E+02
2.980E+02
2.980E+02
2.980E+02
2.980E+02
2.980E+02
2.980E+02
2.980E+02
2.980E+02
2.980E+02
2.980E+02
2.980E+02
2.980E+02
2.980E+02
2.980E+02
2.980E+02
2.980E+02
2.980E+02
2.980E+02
2.980E+02
2.980E+02
2.980E+02
2.980E+02
2.980E+02
2.980E+02
2.980E+02
2.980E+02
2.980E+02
2.980E+02
2.980E+02
2.980E+02
2.980E+02
2.980E+02
2.980E+02
2.980E+02
2.980E+02
)
);
// ************************************************************************* //
