/*--------------------------------*- C++ -*----------------------------------*\
| =========                 |                                                 |
| \\      /  F ield         | OpenFOAM: The Open Source CFD Toolbox           |
|  \\    /   O peration     | Version:  1.0                                   |
|   \\  /    A nd           | Web:      http://www.openfoam.org               |
|    \\/     M anipulation  |                                                 |
\*---------------------------------------------------------------------------*/

FoamFile
{
    version         2.0;
    format          ascii;

    root            "";
    case            "";
    instance        "";
    local           "";

    class           dictionary;
    object          ThermoPopeCloud;
}

// * * * * * * * * * * * * * * * * * * * * * * * * * * * * * * * * * * * * * //
fileName   "CO2";
fields 
(
    {
        N 79;	
	    max 1;
	    min 0;
	    name f;
	}
);

output
( 
    {
        name f;
    }
    {
        name CO20;
	}
    {
        name CO21;
    }
);

values
(
80
(
0
0.01266
0.02532
0.03797
0.05063
0.06329
0.07595
0.08861
0.10127
0.11392
0.12658
0.13924
0.1519
0.16456
0.17722
0.18987
0.20253
0.21519
0.22785
0.24051
0.25316
0.26582
0.27848
0.29114
0.3038
0.31646
0.32911
0.34177
0.35443
0.36709
0.37975
0.39241
0.40506
0.41772
0.43038
0.44304
0.4557
0.46835
0.48101
0.49367
0.50633
0.51899
0.53165
0.5443
0.55696
0.56962
0.58228
0.59494
0.60759
0.62025
0.63291
0.64557
0.65823
0.67089
0.68354
0.6962
0.70886
0.72152
0.73418
0.74684
0.75949
0.77215
0.78481
0.79747
0.81013
0.82278
0.83544
0.8481
0.86076
0.87342
0.88608
0.89873
0.91139
0.92405
0.93671
0.94937
0.96203
0.97468
0.98734
1
)

80
(
0
3.47E-02
6.93E-02
0.103
0.126
0.112
0.109
0.107
0.106
0.104
0.103
0.101
9.98E-02
9.84E-02
9.70E-02
9.56E-02
9.41E-02
9.27E-02
9.12E-02
8.97E-02
8.83E-02
8.68E-02
8.53E-02
8.38E-02
8.23E-02
8.08E-02
7.93E-02
7.79E-02
7.64E-02
7.49E-02
7.34E-02
7.19E-02
7.04E-02
6.89E-02
6.74E-02
6.59E-02
6.44E-02
6.29E-02
6.14E-02
5.99E-02
5.84E-02
5.69E-02
5.54E-02
5.39E-02
5.24E-02
5.09E-02
4.94E-02
4.79E-02
4.64E-02
4.49E-02
4.34E-02
4.19E-02
4.04E-02
3.89E-02
3.74E-02
3.59E-02
3.44E-02
3.29E-02
3.15E-02
3.00E-02
2.85E-02
2.70E-02
2.55E-02
2.40E-02
2.25E-02
2.10E-02
1.95E-02
1.80E-02
1.65E-02
1.50E-02
1.35E-02
1.20E-02
1.05E-02
8.98E-03
7.49E-03
5.99E-03
4.49E-03
3.00E-03
1.50E-03
0
)

80
(
0
0
0
0
0
0
0
0
0
0
0
0
0
0
0
0
0
0
0
0
0
0
0
0
0
0
0
0
0
0
0
0
0
0
0
0
0
0
0
0
0
0
0
0
0
0
0
0
0
0
0
0
0
0
0
0
0
0
0
0
0
0
0
0
0
0
0
0
0
0
0
0
0
0
0
0
0
0
0
0
)
);
// ************************************************************************* //
