/*--------------------------------*- C++ -*----------------------------------*\
| =========                 |                                                 |
| \\      /  F ield         | OpenFOAM: The Open Source CFD Toolbox           |
|  \\    /   O peration     | Version:  1.0                                   |
|   \\  /    A nd           | Web:      http://www.openfoam.org               |
|    \\/     M anipulation  |                                                 |
\*---------------------------------------------------------------------------*/

FoamFile
{
    version         2.0;
    format          ascii;

    root            "";
    case            "";
    instance        "";
    local           "";

    class           dictionary;
    object          ThermoPopeCloud;
}

// * * * * * * * * * * * * * * * * * * * * * * * * * * * * * * * * * * * * * //
fileName   "CH4";
fields 
(
    {
        N 79;	
	    max 1;
	    min 0;
	    name f;
	}
);

output
( 
    {
        name f;
    }
    {
        name CH40;
	}
    {
        name CH41;
    }
);

values
(
80
(
0
0.01266
0.02532
0.03797
0.05063
0.06329
0.07595
0.08861
0.10127
0.11392
0.12658
0.13924
0.1519
0.16456
0.17722
0.18987
0.20253
0.21519
0.22785
0.24051
0.25316
0.26582
0.27848
0.29114
0.3038
0.31646
0.32911
0.34177
0.35443
0.36709
0.37975
0.39241
0.40506
0.41772
0.43038
0.44304
0.4557
0.46835
0.48101
0.49367
0.50633
0.51899
0.53165
0.5443
0.55696
0.56962
0.58228
0.59494
0.60759
0.62025
0.63291
0.64557
0.65823
0.67089
0.68354
0.6962
0.70886
0.72152
0.73418
0.74684
0.75949
0.77215
0.78481
0.79747
0.81013
0.82278
0.83544
0.8481
0.86076
0.87342
0.88608
0.89873
0.91139
0.92405
0.93671
0.94937
0.96203
0.97468
0.98734
1
)

80
(
0
4.97E-12
1.55E-11
5.49E-10
1.83E-07
2.09E-04
1.19E-02
2.42E-02
3.67E-02
4.93E-02
6.21E-02
7.50E-02
8.81E-02
0.101
0.115
0.128
0.141
0.155
0.168
0.182
0.195
0.209
0.222
0.236
0.25
0.263
0.277
0.29
0.304
0.318
0.331
0.345
0.359
0.372
0.386
0.4
0.413
0.427
0.441
0.454
0.468
0.482
0.495
0.509
0.522
0.536
0.55
0.563
0.577
0.591
0.604
0.618
0.632
0.645
0.659
0.673
0.686
0.7
0.713
0.727
0.741
0.754
0.768
0.782
0.795
0.809
0.823
0.836
0.85
0.864
0.877
0.891
0.905
0.918
0.932
0.945
0.959
0.973
0.986
1
)

80
(
0
1.27E-02
2.53E-02
3.80E-02
5.06E-02
6.33E-02
7.60E-02
8.86E-02
0.101
0.114
0.127
0.139
0.152
0.165
0.177
0.19
0.203
0.215
0.228
0.241
0.253
0.266
0.278
0.291
0.304
0.316
0.329
0.342
0.354
0.367
0.38
0.392
0.405
0.418
0.43
0.443
0.456
0.468
0.481
0.494
0.506
0.519
0.532
0.544
0.557
0.57
0.582
0.595
0.608
0.62
0.633
0.646
0.658
0.671
0.684
0.696
0.709
0.722
0.734
0.747
0.759
0.772
0.785
0.797
0.81
0.823
0.835
0.848
0.861
0.873
0.886
0.899
0.911
0.924
0.937
0.949
0.962
0.975
0.987
1
)
);
// ************************************************************************* //
