/*--------------------------------*- C++ -*----------------------------------*\
| =========                 |                                                 |
| \\      /  F ield         | OpenFOAM: The Open Source CFD Toolbox           |
|  \\    /   O peration     | Version:  1.0                                   |
|   \\  /    A nd           | Web:      http://www.openfoam.org               |
|    \\/     M anipulation  |                                                 |
\*---------------------------------------------------------------------------*/

FoamFile
{
    version         2.0;
    format          ascii;

    root            "";
    case            "";
    instance        "";
    local           "";

    class           dictionary;
    object          ThermoPopeCloud;
}

// * * * * * * * * * * * * * * * * * * * * * * * * * * * * * * * * * * * * * //
fileName   "H2O";
fields 
(
    {
        N 79;	
	    max 1;
	    min 0;
	    name f;
	}
);

output
( 
    {
        name f;
    }
    {
        name H2O0;
	}
    {
        name H2O1;
    }

);

values
(
80
(
0
0.01266
0.02532
0.03797
0.05063
0.06329
0.07595
0.08861
0.10127
0.11392
0.12658
0.13924
0.1519
0.16456
0.17722
0.18987
0.20253
0.21519
0.22785
0.24051
0.25316
0.26582
0.27848
0.29114
0.3038
0.31646
0.32911
0.34177
0.35443
0.36709
0.37975
0.39241
0.40506
0.41772
0.43038
0.44304
0.4557
0.46835
0.48101
0.49367
0.50633
0.51899
0.53165
0.5443
0.55696
0.56962
0.58228
0.59494
0.60759
0.62025
0.63291
0.64557
0.65823
0.67089
0.68354
0.6962
0.70886
0.72152
0.73418
0.74684
0.75949
0.77215
0.78481
0.79747
0.81013
0.82278
0.83544
0.8481
0.86076
0.87342
0.88608
0.89873
0.91139
0.92405
0.93671
0.94937
0.96203
0.97468
0.98734
1
)

80
(
0
2.85E-02
5.68E-02
8.45E-02
0.11
0.128
0.127
0.125
0.123
0.121
0.12
0.118
0.116
0.114
0.112
0.111
0.109
0.107
0.105
0.104
0.102
0.1
9.85E-02
9.68E-02
9.50E-02
9.33E-02
9.16E-02
8.98E-02
8.81E-02
8.64E-02
8.47E-02
8.29E-02
8.12E-02
7.95E-02
7.77E-02
7.60E-02
7.43E-02
7.26E-02
7.08E-02
6.91E-02
6.74E-02
6.57E-02
6.39E-02
6.22E-02
6.05E-02
5.87E-02
5.70E-02
5.53E-02
5.36E-02
5.18E-02
5.01E-02
4.84E-02
4.67E-02
4.49E-02
4.32E-02
4.15E-02
3.97E-02
3.80E-02
3.63E-02
3.46E-02
3.28E-02
3.11E-02
2.94E-02
2.76E-02
2.59E-02
2.42E-02
2.25E-02
2.07E-02
1.90E-02
1.73E-02
1.56E-02
1.38E-02
1.21E-02
1.04E-02
8.64E-03
6.91E-03
5.18E-03
3.46E-03
1.73E-03
0
)

80
(
0
0
0
0
0
0
0
0
0
0
0
0
0
0
0
0
0
0
0
0
0
0
0
0
0
0
0
0
0
0
0
0
0
0
0
0
0
0
0
0
0
0
0
0
0
0
0
0
0
0
0
0
0
0
0
0
0
0
0
0
0
0
0
0
0
0
0
0
0
0
0
0
0
0
0
0
0
0
0
0
)
);
// ************************************************************************* //
