/*--------------------------------*- C++ -*----------------------------------*\
| =========                 |                                                 |
| \\      /  F ield         | OpenFOAM: The Open Source CFD Toolbox           |
|  \\    /   O peration     | Version:  1.0                                   |
|   \\  /    A nd           | Web:      http://www.openfoam.org               |
|    \\/     M anipulation  |                                                 |
\*---------------------------------------------------------------------------*/

FoamFile
{
    version         2.0;
    format          ascii;

    root            "";
    case            "";
    instance        "";
    local           "";

    class           dictionary;
    object          ThermoPopeCloud;
}

// * * * * * * * * * * * * * * * * * * * * * * * * * * * * * * * * * * * * * //
fileName   "O2";
fields 
(
    {
        N 79;	
	    max 1;
	    min 0;
	    name f;
	}
);

output
( 
    {
        name f;
    }
    {
        name O20;
	}
    {
        name O21;
    }
);

values
(
80
(
0
0.01266
0.02532
0.03797
0.05063
0.06329
0.07595
0.08861
0.10127
0.11392
0.12658
0.13924
0.1519
0.16456
0.17722
0.18987
0.20253
0.21519
0.22785
0.24051
0.25316
0.26582
0.27848
0.29114
0.3038
0.31646
0.32911
0.34177
0.35443
0.36709
0.37975
0.39241
0.40506
0.41772
0.43038
0.44304
0.4557
0.46835
0.48101
0.49367
0.50633
0.51899
0.53165
0.5443
0.55696
0.56962
0.58228
0.59494
0.60759
0.62025
0.63291
0.64557
0.65823
0.67089
0.68354
0.6962
0.70886
0.72152
0.73418
0.74684
0.75949
0.77215
0.78481
0.79747
0.81013
0.82278
0.83544
0.8481
0.86076
0.87342
0.88608
0.89873
0.91139
0.92405
0.93671
0.94937
0.96203
0.97468
0.98734
1
)

80
(
0.233
0.179
0.126
7.23E-02
2.36E-02
7.65E-04
1.85E-04
6.67E-05
2.83E-05
1.32E-05
6.65E-06
3.55E-06
1.99E-06
1.16E-06
7.00E-07
4.35E-07
2.78E-07
1.82E-07
1.21E-07
8.19E-08
5.64E-08
3.93E-08
2.78E-08
1.98E-08
1.43E-08
1.04E-08
7.65E-09
5.66E-09
4.21E-09
3.16E-09
2.38E-09
1.80E-09
1.37E-09
1.05E-09
8.01E-10
6.16E-10
4.75E-10
3.67E-10
2.84E-10
2.20E-10
1.71E-10
1.33E-10
1.04E-10
8.08E-11
6.30E-11
4.92E-11
3.85E-11
3.02E-11
2.37E-11
1.86E-11
1.47E-11
1.16E-11
9.25E-12
7.39E-12
5.94E-12
4.80E-12
3.91E-12
3.20E-12
2.65E-12
2.20E-12
1.84E-12
1.55E-12
1.32E-12
1.13E-12
9.67E-13
8.34E-13
7.23E-13
6.29E-13
5.48E-13
4.77E-13
4.14E-13
3.58E-13
3.06E-13
2.58E-13
2.13E-13
1.69E-13
1.26E-13
8.39E-14
4.19E-14
0
)

80
(
0.233
0.23
0.227
0.224
0.221
0.218
0.215
0.212
0.209
0.206
0.204
0.201
0.198
0.195
0.192
0.189
0.186
0.183
0.18
0.177
0.174
0.171
0.168
0.165
0.162
0.159
0.156
0.153
0.15
0.147
0.145
0.142
0.139
0.136
0.133
0.13
0.127
0.124
0.121
0.118
0.115
0.112
0.109
0.106
0.103
0.1
9.73E-02
9.44E-02
9.14E-02
8.85E-02
8.55E-02
8.26E-02
7.96E-02
7.67E-02
7.37E-02
7.08E-02
6.78E-02
6.49E-02
6.19E-02
5.90E-02
5.60E-02
5.31E-02
5.01E-02
4.72E-02
4.42E-02
4.13E-02
3.83E-02
3.54E-02
3.24E-02
2.95E-02
2.65E-02
2.36E-02
2.07E-02
1.77E-02
1.48E-02
1.18E-02
8.85E-03
5.90E-03
2.95E-03
0
)
);
// ************************************************************************* //
