ELEMENTS
C H O N
END
SPECIES
H2 O2 O OH H2O H HO2 CO CO2 HCO N2 NO
END
REACTIONS
H+O2=O+OH                 3.547e+15 -0.406  1.6599E+4
O+H2=H+OH                 0.508E+05  2.67  0.629E+04
H2+OH=H2O+H               0.216E+09  1.51  0.343E+04
O+H2O=OH+OH               2.97e+06   2.02  1.34e+4
H2+M=H+H+M                4.577E+19 -1.40  1.0438E+05
   H2/2.5/ H2O/12/
   CO/1.9/ CO2/3.8/
O+O+M=O2+M                6.165E+15 -0.50  0.000E+00
   H2/2.5/ H2O/12/
   CO/1.9/ CO2/3.8/
O+H+M=OH+M                4.714E+18 -1.00  0.000E+00
   H2/2.5/ H2O/12/
   CO/1.9/ CO2/3.8/
H+OH+M=H2O+M               3.800E+22 -2.00  0.000E+00
   H2/2.5/ H2O/12/
   CO/1.9/ CO2/3.8/
H+O2(+M)=HO2(+M)      1.475E+12  0.60  0.00E+00
     LOW/6.366E+20  -1.72  5.248E+02/
     TROE/0.8  1E-30  1E+30/
     H2/2.0/ H2O/11./ O2/0.78/ CO/1.9/ CO2/3.8/
HO2+H=H2+O2               1.66E+13   0.00   0.823E+03
HO2+H=OH+OH               7.079E+13   0.00   2.95E+02
HO2+O=O2+OH               0.325E+14  0.00   0.00E+00
HO2+OH=H2O+O2             2.890E+13  0.00 -4.970E+02
CO+O(+M)=CO2(+M)           1.80E+10  0.00  2384.
   LOW/1.55E+24 -2.79  4191./
   H2/2.5/ H2O/12/ CO/1.9/ CO2/3.8/
CO+O2=CO2+O               0.253E+13  0.00  0.477E+05
CO+HO2=CO2+OH             3.01E+13   0.00   2.30E+04
CO+OH=CO2+H                    2.229E+05  1.89  -1158.7
HCO+M=H+CO+M           4.7485E+11  0.659  1.4874E+04
H2/2.5/ H2O/6/ CO/1.9/ CO2/3.8/
HCO+O2=CO+HO2             0.758E+13  0.00  0.410E+03 
HCO+H=CO+H2               0.723E+14  0.00  0.000E+00  
HCO + O = CO2 + H                 3.000E+13  0.00  0.000E+00
N2 +2O => 2NO                     1.3604E+13 0.30  7.504E+04
FORD /O 1/
END
